data_Co24_P1_PM
_symmetry_space_group_name_H-M   'P 1'
_cell_length_a 39.887000
_cell_length_b 39.887000
_cell_length_c 39.887000
_cell_angle_alpha 90.000000
_cell_angle_beta 90.000000
_cell_angle_gamma 90.000000
_symmetry_Int_Tables_number 1

loop_
_symmetry_equiv_pos_as_xyz
 'x, y, z'

loop_
_atom_site_label
_atom_site_fract_x
_atom_site_fract_y
_atom_site_fract_z
_atom_site_charge
Co 0.000000 0.140550 0.640550 1.289110
Co 0.000000 0.859450 0.359450 1.289110
Co 0.640550 0.140550 0.000000 1.289044
Co 0.359450 0.859450 0.000000 1.289044
Co 0.640550 0.000000 0.140550 1.289044
Co 0.359450 0.000000 0.859450 1.289044
Co 0.859450 0.000000 0.359450 1.289110
Co 0.859450 0.859450 0.500000 1.289111
Co 0.000000 0.359450 0.859450 1.289110
Co 0.859450 0.500000 0.859450 1.289113
Co 0.859450 0.359450 0.000000 1.289110
Co 0.500000 0.359450 0.359450 1.289113
Co 0.359450 0.500000 0.359450 1.289107
Co 0.359450 0.359450 0.500000 1.289110
Co 0.500000 0.140550 0.859450 1.289086
Co 0.859450 0.140550 0.500000 1.289129
Co 0.140550 0.500000 0.859450 1.289129
Co 0.640550 0.500000 0.359450 1.289121
Co 0.500000 0.359450 0.640550 1.289121
Co 0.359450 0.640550 0.500000 1.289121
Co 0.640550 0.000000 0.859450 1.289054
Co 0.359450 0.140550 0.000000 1.289057
Co 0.000000 0.140550 0.359450 1.289120
Co 0.859450 0.000000 0.640550 1.289120
Co 0.140550 0.359450 0.000000 1.289117
Co 0.000000 0.359450 0.140550 1.289120
Co 0.500000 0.140150 0.140150 1.286654
Co 0.500000 0.190150 0.190150 1.345953
Co 0.690150 0.000000 0.190150 1.343995
Co 0.690150 0.190150 0.000000 1.343995
Co 0.000000 0.809850 0.309850 1.343980
Co 0.809850 0.000000 0.309850 1.343980
Co 0.809850 0.809850 0.500000 1.343980
Co 0.000000 0.309850 0.809850 1.343980
Co 0.809850 0.500000 0.809850 1.343986
Co 0.809850 0.309850 0.000000 1.343980
Co 0.500000 0.309850 0.309850 1.343984
Co 0.309850 0.500000 0.309850 1.343974
Co 0.309850 0.309850 0.500000 1.343980
Co 0.500000 0.190150 0.809850 1.343539
Co 0.809850 0.190150 0.500000 1.343531
Co 0.190150 0.500000 0.809850 1.343531
Co 0.690150 0.500000 0.309850 1.343741
Co 0.500000 0.309850 0.690150 1.343740
Co 0.309850 0.690150 0.500000 1.343741
Co 0.690150 0.000000 0.809850 1.343766
Co 0.309850 0.190150 0.000000 1.343771
Co 0.000000 0.190150 0.309850 1.343749
Co 0.809850 0.000000 0.690150 1.343749
Co 0.190150 0.309850 0.000000 1.343743
Co 0.000000 0.309850 0.190150 1.343751
C 0.589960 0.200880 0.089960 -0.027931
C 0.589960 0.089960 0.200880 -0.027911
C 0.700880 0.089960 0.089960 -0.027600
C 0.910040 0.799120 0.410040 -0.027507
C 0.910040 0.910040 0.299120 -0.027519
C 0.799120 0.910040 0.410040 -0.027553
C 0.910040 0.299120 0.910040 -0.027518
C 0.910040 0.410040 0.799120 -0.027553
C 0.799120 0.410040 0.910040 -0.027519
C 0.410040 0.299120 0.410040 -0.027529
C 0.410040 0.410040 0.299120 -0.027517
C 0.299120 0.410040 0.410040 -0.027510
C 0.589960 0.200880 0.910040 -0.027576
C 0.589960 0.089960 0.799120 -0.027603
C 0.410040 0.200880 0.089960 -0.027925
C 0.410040 0.089960 0.200880 -0.027915
C 0.589960 0.910040 0.200880 -0.027588
C 0.700880 0.910040 0.089960 -0.027552
C 0.700880 0.089960 0.910040 -0.027531
C 0.910040 0.200880 0.410040 -0.027540
C 0.799120 0.089960 0.410040 -0.027536
C 0.799120 0.910040 0.589960 -0.027526
C 0.910040 0.799120 0.589960 -0.027534
C 0.089960 0.799120 0.410040 -0.027536
C 0.089960 0.910040 0.299120 -0.027531
C 0.910040 0.089960 0.299120 -0.027512
C 0.089960 0.410040 0.799120 -0.027529
C 0.200880 0.410040 0.910040 -0.027537
C 0.910040 0.299120 0.089960 -0.027546
C 0.089960 0.299120 0.910040 -0.027510
C 0.910040 0.589960 0.799120 -0.027544
C 0.799120 0.589960 0.910040 -0.027522
C 0.799120 0.410040 0.089960 -0.027523
C 0.589960 0.410040 0.299120 -0.027530
C 0.700880 0.410040 0.410040 -0.027537
C 0.410040 0.299120 0.589960 -0.027519
C 0.410040 0.410040 0.700880 -0.027527
C 0.410040 0.700880 0.410040 -0.027540
C 0.299120 0.589960 0.410040 -0.027523
C 0.589960 0.299120 0.410040 -0.027549
C 0.410040 0.589960 0.299120 -0.027523
C 0.299120 0.410040 0.589960 -0.027536
C 0.410040 0.200880 0.910040 -0.027592
C 0.799120 0.089960 0.589960 -0.027520
C 0.089960 0.589960 0.799120 -0.027531
C 0.700880 0.910040 0.910040 -0.027612
C 0.089960 0.089960 0.299120 -0.027533
C 0.089960 0.299120 0.089960 -0.027516
C 0.574880 0.215490 0.117320 0.054729
C 0.617320 0.074880 0.215490 0.054940
C 0.715490 0.117320 0.074880 0.054860
C 0.715490 0.074880 0.117320 0.055005
C 0.574880 0.117320 0.215490 0.054866
C 0.617320 0.215490 0.074880 0.055070
C 0.925120 0.784510 0.382680 0.054859
C 0.882680 0.925120 0.284510 0.054863
C 0.784510 0.882680 0.425120 0.054855
C 0.784510 0.925120 0.382680 0.054980
C 0.925120 0.882680 0.284510 0.054993
C 0.882680 0.784510 0.425120 0.054986
C 0.925120 0.284510 0.882680 0.054860
C 0.882680 0.425120 0.784510 0.054855
C 0.784510 0.382680 0.925120 0.054869
C 0.784510 0.425120 0.882680 0.054987
C 0.925120 0.382680 0.784510 0.054980
C 0.882680 0.284510 0.925120 0.054986
C 0.425120 0.284510 0.382680 0.054996
C 0.382680 0.425120 0.284510 0.054870
C 0.284510 0.382680 0.425120 0.054994
C 0.284510 0.425120 0.382680 0.054861
C 0.425120 0.382680 0.284510 0.054986
C 0.382680 0.284510 0.425120 0.054863
C 0.574880 0.215490 0.882680 0.054869
C 0.617320 0.074880 0.784510 0.054879
C 0.574880 0.117320 0.784510 0.054984
C 0.617320 0.215490 0.925120 0.054998
C 0.425120 0.215490 0.117320 0.054743
C 0.382680 0.215490 0.074880 0.055066
C 0.382680 0.074880 0.215490 0.055068
C 0.425120 0.117320 0.215490 0.054746
C 0.617320 0.925120 0.215490 0.054855
C 0.574880 0.882680 0.215490 0.054997
C 0.715490 0.882680 0.074880 0.054862
C 0.715490 0.925120 0.117320 0.054990
C 0.715490 0.117320 0.925120 0.054862
C 0.715490 0.074880 0.882680 0.054991
C 0.925120 0.215490 0.382680 0.054862
C 0.784510 0.117320 0.425120 0.054851
C 0.784510 0.074880 0.382680 0.054992
C 0.882680 0.215490 0.425120 0.054989
C 0.784510 0.882680 0.574880 0.054990
C 0.784510 0.925120 0.617320 0.054859
C 0.925120 0.784510 0.617320 0.054978
C 0.882680 0.784510 0.574880 0.054872
C 0.074880 0.784510 0.382680 0.054854
C 0.117320 0.784510 0.425120 0.054998
C 0.117320 0.925120 0.284510 0.054860
C 0.074880 0.882680 0.284510 0.054987
C 0.882680 0.074880 0.284510 0.054870
C 0.925120 0.117320 0.284510 0.054996
C 0.117320 0.425120 0.784510 0.054862
C 0.215490 0.382680 0.925120 0.054853
C 0.215490 0.425120 0.882680 0.054999
C 0.074880 0.382680 0.784510 0.054987
C 0.925120 0.284510 0.117320 0.054874
C 0.882680 0.284510 0.074880 0.054978
C 0.074880 0.284510 0.882680 0.054867
C 0.117320 0.284510 0.925120 0.054988
C 0.882680 0.574880 0.784510 0.054994
C 0.925120 0.617320 0.784510 0.054850
C 0.784510 0.617320 0.925120 0.054865
C 0.784510 0.574880 0.882680 0.054992
C 0.784510 0.382680 0.074880 0.054862
C 0.784510 0.425120 0.117320 0.054986
C 0.617320 0.425120 0.284510 0.054866
C 0.715490 0.382680 0.425120 0.054867
C 0.715490 0.425120 0.382680 0.054975
C 0.574880 0.382680 0.284510 0.054975
C 0.425120 0.284510 0.617320 0.054865
C 0.382680 0.425120 0.715490 0.054872
C 0.425120 0.382680 0.715490 0.054996
C 0.382680 0.284510 0.574880 0.054975
C 0.425120 0.715490 0.382680 0.054851
C 0.284510 0.617320 0.425120 0.054873
C 0.284510 0.574880 0.382680 0.054977
C 0.382680 0.715490 0.425120 0.054992
C 0.574880 0.284510 0.382680 0.054867
C 0.617320 0.284510 0.425120 0.054977
C 0.382680 0.574880 0.284510 0.054861
C 0.425120 0.617320 0.284510 0.054986
C 0.284510 0.382680 0.574880 0.054860
C 0.284510 0.425120 0.617320 0.054989
C 0.425120 0.215490 0.882680 0.054881
C 0.382680 0.215490 0.925120 0.054981
C 0.784510 0.117320 0.574880 0.054863
C 0.784510 0.074880 0.617320 0.054996
C 0.117320 0.574880 0.784510 0.054849
C 0.074880 0.617320 0.784510 0.054994
C 0.715490 0.882680 0.925120 0.055008
C 0.715490 0.925120 0.882680 0.054860
C 0.117320 0.074880 0.284510 0.054977
C 0.074880 0.117320 0.284510 0.054864
C 0.074880 0.284510 0.117320 0.054988
C 0.117320 0.284510 0.074880 0.054867
C 0.587330 0.246500 0.129170 -0.094719
C 0.629170 0.087330 0.246500 -0.094488
C 0.746500 0.129170 0.087330 -0.094605
C 0.746500 0.087330 0.129170 -0.096380
C 0.587330 0.129170 0.246500 -0.096284
C 0.629170 0.246500 0.087330 -0.096214
C 0.912670 0.753500 0.370830 -0.094521
C 0.870830 0.912670 0.253500 -0.094536
C 0.753500 0.870830 0.412670 -0.094693
C 0.753500 0.912670 0.370830 -0.096322
C 0.912670 0.870830 0.253500 -0.096351
C 0.870830 0.753500 0.412670 -0.096164
C 0.912670 0.253500 0.870830 -0.094525
C 0.870830 0.412670 0.753500 -0.094696
C 0.753500 0.370830 0.912670 -0.094663
C 0.753500 0.412670 0.870830 -0.096223
C 0.912670 0.370830 0.753500 -0.096321
C 0.870830 0.253500 0.912670 -0.096218
C 0.412670 0.253500 0.370830 -0.096360
C 0.370830 0.412670 0.253500 -0.094607
C 0.253500 0.370830 0.412670 -0.096297
C 0.253500 0.412670 0.370830 -0.094525
C 0.412670 0.370830 0.253500 -0.096270
C 0.370830 0.253500 0.412670 -0.094586
C 0.587330 0.246500 0.870830 -0.094532
C 0.629170 0.087330 0.753500 -0.094761
C 0.587330 0.129170 0.753500 -0.096289
C 0.629170 0.246500 0.912670 -0.096353
C 0.412670 0.246500 0.129170 -0.094590
C 0.370830 0.246500 0.087330 -0.096223
C 0.370830 0.087330 0.246500 -0.096135
C 0.412670 0.129170 0.246500 -0.094772
C 0.629170 0.912670 0.246500 -0.094602
C 0.587330 0.870830 0.246500 -0.096248
C 0.746500 0.870830 0.087330 -0.094583
C 0.746500 0.912670 0.129170 -0.096225
C 0.746500 0.129170 0.912670 -0.094515
C 0.746500 0.087330 0.870830 -0.096149
C 0.912670 0.246500 0.370830 -0.094584
C 0.753500 0.129170 0.412670 -0.094587
C 0.753500 0.087330 0.370830 -0.096252
C 0.870830 0.246500 0.412670 -0.096219
C 0.753500 0.870830 0.587330 -0.096174
C 0.753500 0.912670 0.629170 -0.094572
C 0.912670 0.753500 0.629170 -0.096238
C 0.870830 0.753500 0.587330 -0.094749
C 0.087330 0.753500 0.370830 -0.094605
C 0.129170 0.753500 0.412670 -0.096377
C 0.129170 0.912670 0.253500 -0.094578
C 0.087330 0.870830 0.253500 -0.096223
C 0.870830 0.087330 0.253500 -0.094664
C 0.912670 0.129170 0.253500 -0.096292
C 0.129170 0.412670 0.753500 -0.094516
C 0.246500 0.370830 0.912670 -0.094606
C 0.246500 0.412670 0.870830 -0.096371
C 0.087330 0.370830 0.753500 -0.096219
C 0.912670 0.253500 0.129170 -0.094757
C 0.870830 0.253500 0.087330 -0.096293
C 0.087330 0.253500 0.870830 -0.094654
C 0.129170 0.253500 0.912670 -0.096161
C 0.870830 0.587330 0.753500 -0.096258
C 0.912670 0.629170 0.753500 -0.094645
C 0.753500 0.629170 0.912670 -0.094482
C 0.753500 0.587330 0.870830 -0.096397
C 0.753500 0.370830 0.087330 -0.094531
C 0.753500 0.412670 0.129170 -0.096213
C 0.629170 0.412670 0.253500 -0.094567
C 0.746500 0.370830 0.412670 -0.094568
C 0.746500 0.412670 0.370830 -0.096278
C 0.587330 0.370830 0.253500 -0.096284
C 0.412670 0.253500 0.629170 -0.094560
C 0.370830 0.412670 0.746500 -0.094671
C 0.412670 0.370830 0.746500 -0.096345
C 0.370830 0.253500 0.587330 -0.096225
C 0.412670 0.746500 0.370830 -0.094598
C 0.253500 0.629170 0.412670 -0.094697
C 0.253500 0.587330 0.370830 -0.096235
C 0.370830 0.746500 0.412670 -0.096244
C 0.587330 0.253500 0.370830 -0.094629
C 0.629170 0.253500 0.412670 -0.096285
C 0.370830 0.587330 0.253500 -0.094533
C 0.412670 0.629170 0.253500 -0.096213
C 0.253500 0.370830 0.587330 -0.094585
C 0.253500 0.412670 0.629170 -0.096216
C 0.412670 0.246500 0.870830 -0.094696
C 0.370830 0.246500 0.912670 -0.096285
C 0.753500 0.129170 0.587330 -0.094521
C 0.753500 0.087330 0.629170 -0.096288
C 0.129170 0.587330 0.753500 -0.094584
C 0.087330 0.629170 0.753500 -0.096188
C 0.746500 0.870830 0.912670 -0.096382
C 0.746500 0.912670 0.870830 -0.094649
C 0.129170 0.087330 0.253500 -0.096231
C 0.087330 0.129170 0.253500 -0.094608
C 0.087330 0.253500 0.129170 -0.096170
C 0.129170 0.253500 0.087330 -0.094646
C 0.614360 0.261510 0.114360 0.112140
C 0.614360 0.114360 0.261510 0.112136
C 0.761510 0.114360 0.114360 0.112116
C 0.885640 0.738490 0.385640 0.112100
C 0.885640 0.885640 0.238490 0.112114
C 0.738490 0.885640 0.385640 0.112102
C 0.885640 0.238490 0.885640 0.112108
C 0.885640 0.385640 0.738490 0.112102
C 0.738490 0.385640 0.885640 0.112121
C 0.385640 0.238490 0.385640 0.112123
C 0.385640 0.385640 0.238490 0.112124
C 0.238490 0.385640 0.385640 0.112112
C 0.614360 0.261510 0.885640 0.112114
C 0.614360 0.114360 0.738490 0.112118
C 0.385640 0.261510 0.114360 0.112144
C 0.385640 0.114360 0.261510 0.112150
C 0.614360 0.885640 0.261510 0.112111
C 0.761510 0.885640 0.114360 0.112114
C 0.761510 0.114360 0.885640 0.112101
C 0.885640 0.261510 0.385640 0.112115
C 0.738490 0.114360 0.385640 0.112107
C 0.738490 0.885640 0.614360 0.112109
C 0.885640 0.738490 0.614360 0.112109
C 0.114360 0.738490 0.385640 0.112114
C 0.114360 0.885640 0.238490 0.112115
C 0.885640 0.114360 0.238490 0.112122
C 0.114360 0.385640 0.738490 0.112109
C 0.261510 0.385640 0.885640 0.112113
C 0.885640 0.238490 0.114360 0.112118
C 0.114360 0.238490 0.885640 0.112112
C 0.885640 0.614360 0.738490 0.112114
C 0.738490 0.614360 0.885640 0.112115
C 0.738490 0.385640 0.114360 0.112105
C 0.614360 0.385640 0.238490 0.112093
C 0.761510 0.385640 0.385640 0.112092
C 0.385640 0.238490 0.614360 0.112089
C 0.385640 0.385640 0.761510 0.112129
C 0.385640 0.761510 0.385640 0.112108
C 0.238490 0.614360 0.385640 0.112103
C 0.614360 0.238490 0.385640 0.112101
C 0.385640 0.614360 0.238490 0.112105
C 0.238490 0.385640 0.614360 0.112115
C 0.385640 0.261510 0.885640 0.112109
C 0.738490 0.114360 0.614360 0.112107
C 0.114360 0.614360 0.738490 0.112098
C 0.761510 0.885640 0.885640 0.112118
C 0.114360 0.114360 0.238490 0.112092
C 0.114360 0.238490 0.114360 0.112115
C 0.627300 0.295300 0.127300 -0.660212
C 0.627300 0.127300 0.295300 -0.660237
C 0.795300 0.127300 0.127300 -0.660201
C 0.872700 0.704700 0.372700 -0.660216
C 0.872700 0.872700 0.204700 -0.660215
C 0.704700 0.872700 0.372700 -0.660111
C 0.872700 0.204700 0.872700 -0.660234
C 0.872700 0.372700 0.704700 -0.660116
C 0.704700 0.372700 0.872700 -0.660269
C 0.372700 0.204700 0.372700 -0.660247
C 0.372700 0.372700 0.204700 -0.660280
C 0.204700 0.372700 0.372700 -0.660218
C 0.627300 0.295300 0.872700 -0.660218
C 0.627300 0.127300 0.704700 -0.660185
C 0.372700 0.295300 0.127300 -0.660255
C 0.372700 0.127300 0.295300 -0.660270
C 0.627300 0.872700 0.295300 -0.660227
C 0.795300 0.872700 0.127300 -0.660244
C 0.795300 0.127300 0.872700 -0.660226
C 0.872700 0.295300 0.372700 -0.660258
C 0.704700 0.127300 0.372700 -0.660217
C 0.704700 0.872700 0.627300 -0.660248
C 0.872700 0.704700 0.627300 -0.660165
C 0.127300 0.704700 0.372700 -0.660204
C 0.127300 0.872700 0.204700 -0.660245
C 0.872700 0.127300 0.204700 -0.660257
C 0.127300 0.372700 0.704700 -0.660244
C 0.295300 0.372700 0.872700 -0.660200
C 0.872700 0.204700 0.127300 -0.660185
C 0.127300 0.204700 0.872700 -0.660252
C 0.872700 0.627300 0.704700 -0.660237
C 0.704700 0.627300 0.872700 -0.660219
C 0.704700 0.372700 0.127300 -0.660230
C 0.627300 0.372700 0.204700 -0.660116
C 0.795300 0.372700 0.372700 -0.660114
C 0.372700 0.204700 0.627300 -0.660115
C 0.372700 0.372700 0.795300 -0.660271
C 0.372700 0.795300 0.372700 -0.660220
C 0.204700 0.627300 0.372700 -0.660157
C 0.627300 0.204700 0.372700 -0.660138
C 0.372700 0.627300 0.204700 -0.660226
C 0.204700 0.372700 0.627300 -0.660254
C 0.372700 0.295300 0.872700 -0.660167
C 0.704700 0.127300 0.627300 -0.660218
C 0.127300 0.627300 0.704700 -0.660200
C 0.795300 0.872700 0.872700 -0.660210
C 0.127300 0.127300 0.204700 -0.660119
C 0.127300 0.204700 0.127300 -0.660260
C 0.546410 0.197990 0.134770 0.519830
C 0.634770 0.046410 0.197990 0.519895
C 0.697990 0.134770 0.046410 0.519626
C 0.697990 0.046410 0.134770 0.519775
C 0.546410 0.134770 0.197990 0.519989
C 0.634770 0.197990 0.046410 0.519819
C 0.953590 0.802010 0.365230 0.519825
C 0.865230 0.953590 0.302010 0.519786
C 0.802010 0.865230 0.453590 0.519589
C 0.802010 0.953590 0.365230 0.519553
C 0.953590 0.865230 0.302010 0.519742
C 0.865230 0.802010 0.453590 0.519753
C 0.953590 0.302010 0.865230 0.519787
C 0.865230 0.453590 0.802010 0.519587
C 0.802010 0.365230 0.953590 0.519782
C 0.802010 0.453590 0.865230 0.519747
C 0.953590 0.365230 0.802010 0.519553
C 0.865230 0.302010 0.953590 0.519787
C 0.453590 0.302010 0.365230 0.519742
C 0.365230 0.453590 0.302010 0.519786
C 0.302010 0.365230 0.453590 0.519747
C 0.302010 0.453590 0.365230 0.519826
C 0.453590 0.365230 0.302010 0.519785
C 0.365230 0.302010 0.453590 0.519821
C 0.546410 0.197990 0.865230 0.519866
C 0.634770 0.046410 0.802010 0.519822
C 0.546410 0.134770 0.802010 0.519633
C 0.634770 0.197990 0.953590 0.519770
C 0.453590 0.197990 0.134770 0.520063
C 0.365230 0.197990 0.046410 0.519898
C 0.365230 0.046410 0.197990 0.519838
C 0.453590 0.134770 0.197990 0.520017
C 0.634770 0.953590 0.197990 0.519621
C 0.546410 0.865230 0.197990 0.519867
C 0.697990 0.865230 0.046410 0.519814
C 0.697990 0.953590 0.134770 0.519766
C 0.697990 0.134770 0.953590 0.519843
C 0.697990 0.046410 0.865230 0.519853
C 0.953590 0.197990 0.365230 0.519839
C 0.802010 0.134770 0.453590 0.519653
C 0.802010 0.046410 0.365230 0.519787
C 0.865230 0.197990 0.453590 0.519809
C 0.802010 0.865230 0.546410 0.519790
C 0.802010 0.953590 0.634770 0.519829
C 0.953590 0.802010 0.634770 0.519573
C 0.865230 0.802010 0.546410 0.519778
C 0.046410 0.802010 0.365230 0.519594
C 0.134770 0.802010 0.453590 0.519802
C 0.134770 0.953590 0.302010 0.519839
C 0.046410 0.865230 0.302010 0.519749
C 0.865230 0.046410 0.302010 0.519782
C 0.953590 0.134770 0.302010 0.519791
C 0.134770 0.453590 0.802010 0.519884
C 0.197990 0.365230 0.953590 0.519611
C 0.197990 0.453590 0.865230 0.519803
C 0.046410 0.365230 0.802010 0.519787
C 0.953590 0.302010 0.134770 0.519795
C 0.865230 0.302010 0.046410 0.519553
C 0.046410 0.302010 0.865230 0.519783
C 0.134770 0.302010 0.953590 0.519801
C 0.865230 0.546410 0.802010 0.519787
C 0.953590 0.634770 0.802010 0.519635
C 0.802010 0.634770 0.953590 0.519846
C 0.802010 0.546410 0.865230 0.519739
C 0.802010 0.365230 0.046410 0.519787
C 0.802010 0.453590 0.134770 0.519809
C 0.634770 0.453590 0.302010 0.519804
C 0.697990 0.365230 0.453590 0.519804
C 0.697990 0.453590 0.365230 0.519601
C 0.546410 0.365230 0.302010 0.519552
C 0.453590 0.302010 0.634770 0.519846
C 0.365230 0.453590 0.697990 0.519802
C 0.453590 0.365230 0.697990 0.519788
C 0.365230 0.302010 0.546410 0.519558
C 0.453590 0.697990 0.365230 0.519612
C 0.302010 0.634770 0.453590 0.519802
C 0.302010 0.546410 0.365230 0.519560
C 0.365230 0.697990 0.453590 0.519832
C 0.546410 0.302010 0.365230 0.519780
C 0.634770 0.302010 0.453590 0.519600
C 0.365230 0.546410 0.302010 0.519788
C 0.453590 0.634770 0.302010 0.519797
C 0.302010 0.365230 0.546410 0.519783
C 0.302010 0.453590 0.634770 0.519832
C 0.453590 0.197990 0.865230 0.519861
C 0.365230 0.197990 0.953590 0.519624
C 0.802010 0.134770 0.546410 0.519884
C 0.802010 0.046410 0.634770 0.519791
C 0.134770 0.546410 0.802010 0.519653
C 0.046410 0.634770 0.802010 0.519835
C 0.697990 0.865230 0.953590 0.519793
C 0.697990 0.953590 0.865230 0.519668
C 0.134770 0.046410 0.302010 0.519574
C 0.046410 0.134770 0.302010 0.519829
C 0.046410 0.302010 0.134770 0.519769
C 0.134770 0.302010 0.046410 0.519826
C 0.491600 0.285900 0.238400 0.010824
C 0.491600 0.261600 0.214100 0.010786
C 0.761600 0.214100 0.991600 0.010809
C 0.785900 0.238400 0.991600 0.010804
C 0.714100 0.761600 0.508400 0.010798
C 0.714100 0.008400 0.261600 0.010807
C 0.738400 0.785900 0.508400 0.010813
C 0.738400 0.008400 0.285900 0.010803
C 0.761600 0.508400 0.714100 0.010798
C 0.785900 0.508400 0.738400 0.010813
C 0.008400 0.285900 0.738400 0.010803
C 0.008400 0.261600 0.714100 0.010809
C 0.491600 0.238400 0.714100 0.011261
C 0.491600 0.214100 0.738400 0.010839
C 0.714100 0.238400 0.508400 0.010555
C 0.738400 0.214100 0.508400 0.010845
C 0.761600 0.508400 0.285900 0.010555
C 0.785900 0.508400 0.261600 0.010845
C 0.761600 0.008400 0.785900 0.010511
C 0.785900 0.008400 0.761600 0.011196
C 0.285900 0.261600 0.008400 0.010500
C 0.261600 0.285900 0.008400 0.011205
C 0.991600 0.285900 0.261600 0.010510
C 0.991600 0.261600 0.285900 0.011195
C 0.534000 0.256200 0.268100 0.008377
C 0.534000 0.231900 0.243800 0.008339
C 0.731900 0.243800 0.034000 0.008361
C 0.756200 0.268100 0.034000 0.008357
C 0.743800 0.731900 0.466000 0.008358
C 0.743800 0.966000 0.231900 0.008363
C 0.768100 0.756200 0.466000 0.008363
C 0.768100 0.966000 0.256200 0.008357
C 0.731900 0.466000 0.743800 0.008355
C 0.756200 0.466000 0.768100 0.008363
C 0.966000 0.256200 0.768100 0.008357
C 0.966000 0.231900 0.743800 0.008363
C 0.534000 0.268100 0.743800 0.008375
C 0.534000 0.243800 0.768100 0.008391
C 0.743800 0.268100 0.466000 0.008544
C 0.768100 0.243800 0.466000 0.008398
C 0.731900 0.466000 0.256200 0.008543
C 0.756200 0.466000 0.231900 0.008397
C 0.731900 0.966000 0.756200 0.008494
C 0.756200 0.966000 0.731900 0.008315
C 0.256200 0.231900 0.966000 0.008489
C 0.231900 0.256200 0.966000 0.008319
C 0.034000 0.256200 0.231900 0.008495
C 0.034000 0.231900 0.256200 0.008314
C 0.476400 0.244800 0.278800 0.016961
C 0.476400 0.221200 0.255200 0.016883
C 0.721200 0.255200 0.976400 0.016942
C 0.744800 0.278800 0.976400 0.016903
C 0.755200 0.721200 0.523600 0.016943
C 0.755200 0.023600 0.221200 0.016941
C 0.778800 0.744800 0.523600 0.016901
C 0.778800 0.023600 0.244800 0.016902
C 0.721200 0.523600 0.755200 0.016905
C 0.744800 0.523600 0.778800 0.016940
C 0.023600 0.244800 0.778800 0.016903
C 0.023600 0.221200 0.755200 0.016942
C 0.476400 0.278800 0.755200 0.016787
C 0.476400 0.255200 0.778800 0.016957
C 0.755200 0.278800 0.523600 0.017284
C 0.778800 0.255200 0.523600 0.016993
C 0.721200 0.523600 0.244800 0.017284
C 0.744800 0.523600 0.221200 0.016994
C 0.721200 0.023600 0.744800 0.017227
C 0.744800 0.023600 0.721200 0.016729
C 0.244800 0.221200 0.023600 0.017267
C 0.221200 0.244800 0.023600 0.016690
C 0.976400 0.244800 0.221200 0.017227
C 0.976400 0.221200 0.244800 0.016728
H 0.581500 0.180800 0.081500 0.154303
H 0.581500 0.081500 0.180800 0.154298
H 0.680800 0.081500 0.081500 0.154557
H 0.918500 0.819200 0.418500 0.154609
H 0.918500 0.918500 0.319200 0.154609
H 0.819200 0.918500 0.418500 0.154618
H 0.918500 0.319200 0.918500 0.154609
H 0.918500 0.418500 0.819200 0.154618
H 0.819200 0.418500 0.918500 0.154609
H 0.418500 0.319200 0.418500 0.154610
H 0.418500 0.418500 0.319200 0.154609
H 0.319200 0.418500 0.418500 0.154608
H 0.581500 0.180800 0.918500 0.154571
H 0.581500 0.081500 0.819200 0.154575
H 0.418500 0.180800 0.081500 0.154298
H 0.418500 0.081500 0.180800 0.154298
H 0.581500 0.918500 0.180800 0.154575
H 0.680800 0.918500 0.081500 0.154583
H 0.680800 0.081500 0.918500 0.154581
H 0.918500 0.180800 0.418500 0.154609
H 0.819200 0.081500 0.418500 0.154612
H 0.819200 0.918500 0.581500 0.154609
H 0.918500 0.819200 0.581500 0.154613
H 0.081500 0.819200 0.418500 0.154612
H 0.081500 0.918500 0.319200 0.154610
H 0.918500 0.081500 0.319200 0.154608
H 0.081500 0.418500 0.819200 0.154608
H 0.180800 0.418500 0.918500 0.154612
H 0.918500 0.319200 0.081500 0.154613
H 0.081500 0.319200 0.918500 0.154609
H 0.918500 0.581500 0.819200 0.154614
H 0.819200 0.581500 0.918500 0.154609
H 0.819200 0.418500 0.081500 0.154609
H 0.581500 0.418500 0.319200 0.154613
H 0.680800 0.418500 0.418500 0.154613
H 0.418500 0.319200 0.581500 0.154612
H 0.418500 0.418500 0.680800 0.154609
H 0.418500 0.680800 0.418500 0.154613
H 0.319200 0.581500 0.418500 0.154612
H 0.581500 0.319200 0.418500 0.154614
H 0.418500 0.581500 0.319200 0.154610
H 0.319200 0.418500 0.581500 0.154610
H 0.418500 0.180800 0.918500 0.154574
H 0.819200 0.081500 0.581500 0.154608
H 0.081500 0.581500 0.819200 0.154612
H 0.680800 0.918500 0.918500 0.154557
H 0.081500 0.081500 0.319200 0.154613
H 0.081500 0.319200 0.081500 0.154608
H 0.577000 0.256800 0.147300 0.122852
H 0.647300 0.077000 0.256800 0.122471
H 0.756800 0.147300 0.077000 0.122907
H 0.756800 0.077000 0.147300 0.123943
H 0.577000 0.147300 0.256800 0.123696
H 0.647300 0.256800 0.077000 0.123738
H 0.923000 0.743200 0.352700 0.122484
H 0.852700 0.923000 0.243200 0.122515
H 0.743200 0.852700 0.423000 0.122906
H 0.743200 0.923000 0.352700 0.124147
H 0.923000 0.852700 0.243200 0.123941
H 0.852700 0.743200 0.423000 0.123752
H 0.923000 0.243200 0.852700 0.122515
H 0.852700 0.423000 0.743200 0.122906
H 0.743200 0.352700 0.923000 0.122708
H 0.743200 0.423000 0.852700 0.123747
H 0.923000 0.352700 0.743200 0.124147
H 0.852700 0.243200 0.923000 0.123716
H 0.423000 0.243200 0.352700 0.123943
H 0.352700 0.423000 0.243200 0.122709
H 0.243200 0.352700 0.423000 0.123945
H 0.243200 0.423000 0.352700 0.122479
H 0.423000 0.352700 0.243200 0.123713
H 0.352700 0.243200 0.423000 0.122479
H 0.577000 0.256800 0.852700 0.122513
H 0.647300 0.077000 0.743200 0.122702
H 0.577000 0.147300 0.743200 0.124141
H 0.647300 0.256800 0.923000 0.123940
H 0.423000 0.256800 0.147300 0.122431
H 0.352700 0.256800 0.077000 0.123700
H 0.352700 0.077000 0.256800 0.123739
H 0.423000 0.147300 0.256800 0.122647
H 0.647300 0.923000 0.256800 0.122907
H 0.577000 0.852700 0.256800 0.123714
H 0.756800 0.852700 0.077000 0.122509
H 0.756800 0.923000 0.147300 0.123747
H 0.756800 0.147300 0.923000 0.122483
H 0.756800 0.077000 0.852700 0.123719
H 0.923000 0.256800 0.352700 0.122477
H 0.743200 0.147300 0.423000 0.122906
H 0.743200 0.077000 0.352700 0.123719
H 0.852700 0.256800 0.423000 0.123744
H 0.743200 0.852700 0.577000 0.123721
H 0.743200 0.923000 0.647300 0.122508
H 0.923000 0.743200 0.647300 0.124149
H 0.852700 0.743200 0.577000 0.122705
H 0.077000 0.743200 0.352700 0.122908
H 0.147300 0.743200 0.423000 0.123940
H 0.147300 0.923000 0.243200 0.122478
H 0.077000 0.852700 0.243200 0.123747
H 0.852700 0.077000 0.243200 0.122707
H 0.923000 0.147300 0.243200 0.123945
H 0.147300 0.423000 0.743200 0.122483
H 0.256800 0.352700 0.923000 0.122908
H 0.256800 0.423000 0.852700 0.123940
H 0.077000 0.352700 0.743200 0.123716
H 0.923000 0.243200 0.147300 0.122703
H 0.852700 0.243200 0.077000 0.124144
H 0.077000 0.243200 0.852700 0.122707
H 0.147300 0.243200 0.923000 0.123751
H 0.852700 0.577000 0.743200 0.123723
H 0.923000 0.647300 0.743200 0.122901
H 0.743200 0.647300 0.923000 0.122484
H 0.743200 0.577000 0.852700 0.123939
H 0.743200 0.352700 0.077000 0.122515
H 0.743200 0.423000 0.147300 0.123744
H 0.647300 0.423000 0.243200 0.122518
H 0.756800 0.352700 0.423000 0.122518
H 0.756800 0.423000 0.352700 0.124142
H 0.577000 0.352700 0.243200 0.124142
H 0.423000 0.243200 0.647300 0.122484
H 0.352700 0.423000 0.756800 0.122704
H 0.423000 0.352700 0.756800 0.123940
H 0.352700 0.243200 0.577000 0.124148
H 0.423000 0.756800 0.352700 0.122908
H 0.243200 0.647300 0.423000 0.122706
H 0.243200 0.577000 0.352700 0.124148
H 0.352700 0.756800 0.423000 0.123719
H 0.577000 0.243200 0.352700 0.122512
H 0.647300 0.243200 0.423000 0.124142
H 0.352700 0.577000 0.243200 0.122515
H 0.423000 0.647300 0.243200 0.123746
H 0.243200 0.352700 0.577000 0.122510
H 0.243200 0.423000 0.647300 0.123717
H 0.423000 0.256800 0.852700 0.122708
H 0.352700 0.256800 0.923000 0.124141
H 0.743200 0.147300 0.577000 0.122482
H 0.743200 0.077000 0.647300 0.123944
H 0.147300 0.577000 0.743200 0.122906
H 0.077000 0.647300 0.743200 0.123724
H 0.756800 0.852700 0.923000 0.123946
H 0.756800 0.923000 0.852700 0.122900
H 0.147300 0.077000 0.243200 0.124149
H 0.077000 0.147300 0.243200 0.122511
H 0.077000 0.243200 0.147300 0.123752
H 0.147300 0.243200 0.077000 0.122702
H 0.614200 0.302200 0.146200 0.182764
H 0.646200 0.114200 0.302200 0.182649
H 0.802200 0.146200 0.114200 0.182760
H 0.885800 0.697800 0.353800 0.182649
H 0.853800 0.885800 0.197800 0.182658
H 0.697800 0.853800 0.385800 0.182732
H 0.885800 0.197800 0.853800 0.182667
H 0.853800 0.385800 0.697800 0.182731
H 0.697800 0.353800 0.885800 0.182682
H 0.353800 0.385800 0.197800 0.182689
H 0.197800 0.385800 0.353800 0.182643
H 0.353800 0.197800 0.385800 0.182646
H 0.614200 0.302200 0.853800 0.182659
H 0.646200 0.114200 0.697800 0.182649
H 0.385800 0.302200 0.146200 0.182657
H 0.385800 0.146200 0.302200 0.182679
H 0.646200 0.885800 0.302200 0.182768
H 0.802200 0.853800 0.114200 0.182662
H 0.802200 0.146200 0.885800 0.182653
H 0.885800 0.302200 0.353800 0.182649
H 0.697800 0.146200 0.385800 0.182769
H 0.697800 0.885800 0.646200 0.182663
H 0.853800 0.697800 0.614200 0.182647
H 0.114200 0.697800 0.353800 0.182759
H 0.146200 0.885800 0.197800 0.182650
H 0.853800 0.114200 0.197800 0.182675
H 0.146200 0.385800 0.697800 0.182656
H 0.302200 0.353800 0.885800 0.182760
H 0.885800 0.197800 0.146200 0.182649
H 0.114200 0.197800 0.853800 0.182680
H 0.885800 0.646200 0.697800 0.182767
H 0.697800 0.646200 0.885800 0.182649
H 0.697800 0.353800 0.114200 0.182662
H 0.646200 0.385800 0.197800 0.182632
H 0.802200 0.353800 0.385800 0.182631
H 0.385800 0.197800 0.646200 0.182615
H 0.353800 0.385800 0.802200 0.182676
H 0.385800 0.802200 0.353800 0.182767
H 0.197800 0.646200 0.385800 0.182646
H 0.614200 0.197800 0.353800 0.182628
H 0.353800 0.614200 0.197800 0.182663
H 0.197800 0.353800 0.614200 0.182665
H 0.385800 0.302200 0.853800 0.182651
H 0.697800 0.146200 0.614200 0.182644
H 0.146200 0.614200 0.697800 0.182767
H 0.802200 0.885800 0.853800 0.182759
H 0.114200 0.146200 0.197800 0.182627
H 0.146200 0.197800 0.114200 0.182679
H 0.650300 0.293100 0.133900 0.183915
H 0.633900 0.150300 0.293100 0.183930
H 0.793100 0.133900 0.150300 0.183906
H 0.849700 0.706900 0.366100 0.183933
H 0.866100 0.849700 0.206900 0.183914
H 0.706900 0.866100 0.349700 0.183955
H 0.849700 0.206900 0.866100 0.183945
H 0.866100 0.349700 0.706900 0.183951
H 0.706900 0.366100 0.849700 0.183922
H 0.366100 0.349700 0.206900 0.183943
H 0.206900 0.349700 0.366100 0.183936
H 0.366100 0.206900 0.349700 0.183923
H 0.650300 0.293100 0.866100 0.183916
H 0.633900 0.150300 0.706900 0.183965
H 0.349700 0.293100 0.133900 0.183955
H 0.349700 0.133900 0.293100 0.183934
H 0.633900 0.849700 0.293100 0.183939
H 0.793100 0.866100 0.150300 0.183925
H 0.793100 0.133900 0.849700 0.183954
H 0.849700 0.293100 0.366100 0.183941
H 0.706900 0.133900 0.349700 0.183938
H 0.706900 0.849700 0.633900 0.183944
H 0.866100 0.706900 0.650300 0.183956
H 0.150300 0.706900 0.366100 0.183907
H 0.133900 0.849700 0.206900 0.183944
H 0.866100 0.150300 0.206900 0.183909
H 0.133900 0.349700 0.706900 0.183959
H 0.293100 0.366100 0.849700 0.183907
H 0.849700 0.206900 0.133900 0.183956
H 0.150300 0.206900 0.866100 0.183916
H 0.849700 0.633900 0.706900 0.183930
H 0.706900 0.633900 0.849700 0.183928
H 0.706900 0.366100 0.150300 0.183918
H 0.633900 0.349700 0.206900 0.183948
H 0.793100 0.366100 0.349700 0.183952
H 0.349700 0.206900 0.633900 0.183961
H 0.366100 0.349700 0.793100 0.183916
H 0.349700 0.793100 0.366100 0.183937
H 0.206900 0.633900 0.349700 0.183946
H 0.650300 0.206900 0.366100 0.183960
H 0.366100 0.650300 0.206900 0.183919
H 0.206900 0.366100 0.650300 0.183953
H 0.349700 0.293100 0.866100 0.183953
H 0.706900 0.133900 0.650300 0.183925
H 0.133900 0.650300 0.706900 0.183932
H 0.793100 0.849700 0.866100 0.183900
H 0.150300 0.133900 0.206900 0.183950
H 0.133900 0.206900 0.150300 0.183928
H 0.625500 0.311800 0.109900 0.185731
H 0.609900 0.125500 0.311800 0.185742
H 0.811800 0.109900 0.125500 0.185709
H 0.874500 0.688200 0.390100 0.185744
H 0.890100 0.874500 0.188200 0.185729
H 0.688200 0.890100 0.374500 0.185715
H 0.874500 0.188200 0.890100 0.185718
H 0.890100 0.374500 0.688200 0.185717
H 0.688200 0.390100 0.874500 0.185746
H 0.390100 0.374500 0.188200 0.185710
H 0.188200 0.374500 0.390100 0.185708
H 0.390100 0.188200 0.374500 0.185721
H 0.625500 0.311800 0.890100 0.185726
H 0.609900 0.125500 0.688200 0.185728
H 0.374500 0.311800 0.109900 0.185701
H 0.374500 0.109900 0.311800 0.185739
H 0.609900 0.874500 0.311800 0.185694
H 0.811800 0.890100 0.125500 0.185743
H 0.811800 0.109900 0.874500 0.185717
H 0.874500 0.311800 0.390100 0.185727
H 0.688200 0.109900 0.374500 0.185698
H 0.688200 0.874500 0.609900 0.185721
H 0.890100 0.688200 0.625500 0.185743
H 0.125500 0.688200 0.390100 0.185705
H 0.109900 0.874500 0.188200 0.185728
H 0.890100 0.125500 0.188200 0.185733
H 0.109900 0.374500 0.688200 0.185704
H 0.311800 0.390100 0.874500 0.185707
H 0.874500 0.188200 0.109900 0.185735
H 0.125500 0.188200 0.890100 0.185758
H 0.874500 0.609900 0.688200 0.185707
H 0.688200 0.609900 0.874500 0.185710
H 0.688200 0.390100 0.125500 0.185749
H 0.609900 0.374500 0.188200 0.185746
H 0.811800 0.390100 0.374500 0.185744
H 0.374500 0.188200 0.609900 0.185738
H 0.390100 0.374500 0.811800 0.185721
H 0.374500 0.811800 0.390100 0.185697
H 0.188200 0.609900 0.374500 0.185749
H 0.625500 0.188200 0.390100 0.185737
H 0.390100 0.625500 0.188200 0.185749
H 0.188200 0.390100 0.625500 0.185711
H 0.374500 0.311800 0.890100 0.185737
H 0.688200 0.109900 0.625500 0.185720
H 0.109900 0.625500 0.688200 0.185711
H 0.811800 0.874500 0.890100 0.185720
H 0.125500 0.109900 0.188200 0.185751
H 0.109900 0.188200 0.125500 0.185743
H 0.535300 0.243050 0.292650 0.088228
H 0.464700 0.292650 0.243050 0.087608
H 0.464700 0.256950 0.207350 0.087466
H 0.756950 0.207350 0.964700 0.087540
H 0.535300 0.207350 0.256950 0.088237
H 0.707350 0.256950 0.035300 0.088313
H 0.743050 0.292650 0.035300 0.088238
H 0.792650 0.243050 0.964700 0.087619
H 0.756950 0.707350 0.464700 0.088230
H 0.707350 0.756950 0.535300 0.087533
H 0.707350 0.035300 0.256950 0.087537
H 0.756950 0.964700 0.207350 0.088314
H 0.792650 0.964700 0.243050 0.088238
H 0.743050 0.792650 0.535300 0.087624
H 0.743050 0.035300 0.292650 0.087617
H 0.792650 0.743050 0.464700 0.088323
H 0.707350 0.464700 0.756950 0.088237
H 0.756950 0.535300 0.707350 0.087543
H 0.964700 0.243050 0.792650 0.088239
H 0.792650 0.535300 0.743050 0.087614
H 0.743050 0.464700 0.792650 0.088315
H 0.035300 0.292650 0.743050 0.087618
H 0.035300 0.256950 0.707350 0.087540
H 0.964700 0.207350 0.756950 0.088315
H 0.464700 0.243050 0.707350 0.087528
H 0.535300 0.292650 0.756950 0.088208
H 0.535300 0.256950 0.792650 0.088156
H 0.464700 0.207350 0.743050 0.087535
H 0.756950 0.292650 0.464700 0.088275
H 0.707350 0.243050 0.535300 0.087557
H 0.743050 0.207350 0.535300 0.087471
H 0.792650 0.256950 0.464700 0.088247
H 0.707350 0.464700 0.243050 0.088275
H 0.756950 0.535300 0.292650 0.087558
H 0.792650 0.535300 0.256950 0.087472
H 0.743050 0.464700 0.207350 0.088247
H 0.707350 0.964700 0.743050 0.088351
H 0.756950 0.035300 0.792650 0.087557
H 0.792650 0.035300 0.756950 0.087528
H 0.743050 0.964700 0.707350 0.088127
H 0.243050 0.207350 0.964700 0.088259
H 0.292650 0.256950 0.035300 0.087538
H 0.256950 0.292650 0.035300 0.087545
H 0.207350 0.243050 0.964700 0.088221
H 0.035300 0.243050 0.207350 0.088352
H 0.964700 0.292650 0.256950 0.087556
H 0.964700 0.256950 0.292650 0.087527
H 0.035300 0.207350 0.243050 0.088127
H 0.487350 0.233750 0.301850 0.084793
H 0.512650 0.301850 0.233750 0.086506
H 0.512650 0.266250 0.198150 0.086414
H 0.766250 0.198150 0.012650 0.086495
H 0.487350 0.198150 0.266250 0.084677
H 0.698150 0.266250 0.987350 0.084779
H 0.733750 0.301850 0.987350 0.084776
H 0.801850 0.233750 0.012650 0.086506
H 0.766250 0.698150 0.512650 0.084793
H 0.698150 0.766250 0.487350 0.086523
H 0.698150 0.987350 0.266250 0.086493
H 0.766250 0.012650 0.198150 0.084779
H 0.801850 0.012650 0.233750 0.084776
H 0.733750 0.801850 0.487350 0.086477
H 0.733750 0.987350 0.301850 0.086505
H 0.801850 0.733750 0.512650 0.084759
H 0.698150 0.512650 0.766250 0.084775
H 0.766250 0.487350 0.698150 0.086522
H 0.012650 0.233750 0.801850 0.084777
H 0.801850 0.487350 0.733750 0.086477
H 0.733750 0.512650 0.801850 0.084781
H 0.987350 0.301850 0.733750 0.086505
H 0.987350 0.266250 0.698150 0.086495
H 0.012650 0.198150 0.766250 0.084780
H 0.512650 0.233750 0.698150 0.086510
H 0.487350 0.301850 0.766250 0.084668
H 0.487350 0.266250 0.801850 0.084693
H 0.512650 0.198150 0.733750 0.086424
H 0.766250 0.301850 0.512650 0.084809
H 0.698150 0.233750 0.487350 0.086417
H 0.733750 0.198150 0.487350 0.086424
H 0.801850 0.266250 0.512650 0.084700
H 0.698150 0.512650 0.233750 0.084810
H 0.766250 0.487350 0.301850 0.086418
H 0.801850 0.487350 0.266250 0.086424
H 0.733750 0.512650 0.198150 0.084702
H 0.698150 0.012650 0.733750 0.084788
H 0.766250 0.987350 0.801850 0.086385
H 0.801850 0.987350 0.766250 0.086543
H 0.733750 0.012650 0.698150 0.084683
H 0.233750 0.198150 0.012650 0.084828
H 0.301850 0.266250 0.987350 0.086412
H 0.266250 0.301850 0.987350 0.086513
H 0.198150 0.233750 0.012650 0.084649
H 0.987350 0.233750 0.198150 0.084791
H 0.012650 0.301850 0.266250 0.086385
H 0.012650 0.266250 0.301850 0.086542
H 0.987350 0.198150 0.233750 0.084685
H 0.451900 0.258600 0.277050 0.084024
H 0.548100 0.277050 0.258600 0.086479
H 0.548100 0.241400 0.222950 0.086369
H 0.741400 0.222950 0.048100 0.086446
H 0.451900 0.222950 0.241400 0.083979
H 0.722950 0.241400 0.951900 0.084053
H 0.758600 0.277050 0.951900 0.084028
H 0.777050 0.258600 0.048100 0.086479
H 0.741400 0.722950 0.548100 0.084054
H 0.722950 0.741400 0.451900 0.086482
H 0.722950 0.951900 0.241400 0.086449
H 0.741400 0.048100 0.222950 0.084050
H 0.777050 0.048100 0.258600 0.084026
H 0.758600 0.777050 0.451900 0.086449
H 0.758600 0.951900 0.277050 0.086480
H 0.777050 0.758600 0.548100 0.084027
H 0.722950 0.548100 0.741400 0.084058
H 0.741400 0.451900 0.722950 0.086478
H 0.048100 0.258600 0.777050 0.084028
H 0.777050 0.451900 0.758600 0.086448
H 0.758600 0.548100 0.777050 0.084025
H 0.951900 0.277050 0.758600 0.086480
H 0.951900 0.241400 0.722950 0.086449
H 0.048100 0.222950 0.741400 0.084053
H 0.548100 0.258600 0.722950 0.086462
H 0.451900 0.277050 0.741400 0.084029
H 0.451900 0.241400 0.777050 0.083958
H 0.548100 0.222950 0.758600 0.086414
H 0.741400 0.277050 0.548100 0.083971
H 0.722950 0.258600 0.451900 0.086396
H 0.758600 0.222950 0.451900 0.086367
H 0.777050 0.241400 0.548100 0.083962
H 0.722950 0.548100 0.258600 0.083973
H 0.741400 0.451900 0.277050 0.086395
H 0.777050 0.451900 0.241400 0.086365
H 0.758600 0.548100 0.222950 0.083964
H 0.722950 0.048100 0.758600 0.083983
H 0.741400 0.951900 0.777050 0.086370
H 0.777050 0.951900 0.741400 0.086484
H 0.758600 0.048100 0.722950 0.084021
H 0.258600 0.222950 0.048100 0.083977
H 0.277050 0.241400 0.951900 0.086403
H 0.241400 0.277050 0.951900 0.086450
H 0.222950 0.258600 0.048100 0.084024
H 0.951900 0.258600 0.222950 0.083981
H 0.048100 0.277050 0.241400 0.086371
H 0.048100 0.241400 0.277050 0.086483
H 0.951900 0.222950 0.258600 0.084019
N 0.500000 0.271100 0.271100 -0.417531
N 0.500000 0.228900 0.228900 -0.417937
N 0.728900 0.228900 0.000000 -0.417575
N 0.771100 0.271100 0.000000 -0.417560
N 0.728900 0.728900 0.500000 -0.417565
N 0.728900 0.000000 0.228900 -0.417575
N 0.771100 0.000000 0.271100 -0.417559
N 0.771100 0.771100 0.500000 -0.417568
N 0.728900 0.500000 0.728900 -0.417558
N 0.000000 0.271100 0.771100 -0.417560
N 0.771100 0.500000 0.771100 -0.417574
N 0.000000 0.228900 0.728900 -0.417573
N 0.500000 0.271000 0.728900 -0.416944
N 0.500000 0.229000 0.771000 -0.416621
N 0.729000 0.271100 0.500000 -0.416950
N 0.771000 0.229000 0.500000 -0.416634
N 0.728900 0.500000 0.271000 -0.416951
N 0.771000 0.500000 0.229000 -0.416634
N 0.728900 0.000000 0.771000 -0.417061
N 0.771100 0.000000 0.729000 -0.417037
N 0.271000 0.228900 0.000000 -0.417059
N 0.229000 0.271100 0.000000 -0.417039
N 0.000000 0.271000 0.228900 -0.417058
N 0.000000 0.229000 0.271100 -0.417037
O 0.535710 0.171850 0.121780 -0.673792
O 0.621780 0.035710 0.171850 -0.674525
O 0.671850 0.121780 0.035710 -0.674364
O 0.671850 0.035710 0.121780 -0.674369
O 0.535710 0.121780 0.171850 -0.673797
O 0.621780 0.171850 0.035710 -0.674546
O 0.964290 0.828150 0.378220 -0.674217
O 0.878220 0.964290 0.328150 -0.674211
O 0.828150 0.878220 0.464290 -0.674235
O 0.828150 0.964290 0.378220 -0.674251
O 0.964290 0.878220 0.328150 -0.674228
O 0.878220 0.828150 0.464290 -0.674227
O 0.964290 0.328150 0.878220 -0.674211
O 0.878220 0.464290 0.828150 -0.674231
O 0.828150 0.378220 0.964290 -0.674199
O 0.828150 0.464290 0.878220 -0.674233
O 0.964290 0.378220 0.828150 -0.674251
O 0.878220 0.328150 0.964290 -0.674243
O 0.464290 0.328150 0.378220 -0.674215
O 0.378220 0.464290 0.328150 -0.674200
O 0.328150 0.378220 0.464290 -0.674218
O 0.328150 0.464290 0.378220 -0.674228
O 0.464290 0.378220 0.328150 -0.674239
O 0.378220 0.328150 0.464290 -0.674226
O 0.535710 0.171850 0.878220 -0.674292
O 0.621780 0.035710 0.828150 -0.674324
O 0.535710 0.121780 0.828150 -0.674330
O 0.621780 0.171850 0.964290 -0.674345
O 0.464290 0.171850 0.121780 -0.673782
O 0.378220 0.171850 0.035710 -0.674543
O 0.378220 0.035710 0.171850 -0.674532
O 0.464290 0.121780 0.171850 -0.673776
O 0.621780 0.964290 0.171850 -0.674341
O 0.535710 0.878220 0.171850 -0.674324
O 0.671850 0.878220 0.035710 -0.674274
O 0.671850 0.964290 0.121780 -0.674301
O 0.671850 0.121780 0.964290 -0.674278
O 0.671850 0.035710 0.878220 -0.674286
O 0.964290 0.171850 0.378220 -0.674222
O 0.828150 0.121780 0.464290 -0.674209
O 0.828150 0.035710 0.378220 -0.674245
O 0.878220 0.171850 0.464290 -0.674227
O 0.828150 0.878220 0.535710 -0.674234
O 0.828150 0.964290 0.621780 -0.674218
O 0.964290 0.828150 0.621780 -0.674233
O 0.878220 0.828150 0.535710 -0.674210
O 0.035710 0.828150 0.378220 -0.674221
O 0.121780 0.828150 0.464290 -0.674214
O 0.121780 0.964290 0.328150 -0.674221
O 0.035710 0.878220 0.328150 -0.674239
O 0.878220 0.035710 0.328150 -0.674198
O 0.964290 0.121780 0.328150 -0.674207
O 0.121780 0.464290 0.828150 -0.674205
O 0.171850 0.378220 0.964290 -0.674221
O 0.171850 0.464290 0.878220 -0.674211
O 0.035710 0.378220 0.828150 -0.674247
O 0.964290 0.328150 0.121780 -0.674205
O 0.878220 0.328150 0.035710 -0.674250
O 0.035710 0.328150 0.878220 -0.674198
O 0.121780 0.328150 0.964290 -0.674225
O 0.878220 0.535710 0.828150 -0.674232
O 0.964290 0.621780 0.828150 -0.674226
O 0.828150 0.621780 0.964290 -0.674211
O 0.828150 0.535710 0.878220 -0.674224
O 0.828150 0.378220 0.035710 -0.674212
O 0.828150 0.464290 0.121780 -0.674225
O 0.621780 0.464290 0.328150 -0.674205
O 0.671850 0.378220 0.464290 -0.674204
O 0.671850 0.464290 0.378220 -0.674244
O 0.535710 0.378220 0.328150 -0.674243
O 0.464290 0.328150 0.621780 -0.674210
O 0.378220 0.464290 0.671850 -0.674192
O 0.464290 0.378220 0.671850 -0.674218
O 0.378220 0.328150 0.535710 -0.674237
O 0.464290 0.671850 0.378220 -0.674216
O 0.328150 0.621780 0.464290 -0.674192
O 0.328150 0.535710 0.378220 -0.674243
O 0.378220 0.671850 0.464290 -0.674238
O 0.535710 0.328150 0.378220 -0.674221
O 0.621780 0.328150 0.464290 -0.674244
O 0.378220 0.535710 0.328150 -0.674218
O 0.464290 0.621780 0.328150 -0.674231
O 0.328150 0.378220 0.535710 -0.674226
O 0.328150 0.464290 0.621780 -0.674237
O 0.464290 0.171850 0.878220 -0.674279
O 0.378220 0.171850 0.964290 -0.674357
O 0.828150 0.121780 0.535710 -0.674204
O 0.828150 0.035710 0.621780 -0.674209
O 0.121780 0.535710 0.828150 -0.674211
O 0.035710 0.621780 0.828150 -0.674225
O 0.671850 0.878220 0.964290 -0.674348
O 0.671850 0.964290 0.878220 -0.674367
O 0.121780 0.035710 0.328150 -0.674231
O 0.035710 0.121780 0.328150 -0.674215
O 0.035710 0.328150 0.121780 -0.674222
O 0.121780 0.328150 0.035710 -0.674205
O 0.535650 0.211280 0.161070 -0.684487
O 0.661070 0.035650 0.211280 -0.686450
O 0.711280 0.161070 0.035650 -0.685731
O 0.711280 0.035650 0.161070 -0.686360
O 0.535650 0.161070 0.211280 -0.685065
O 0.661070 0.211280 0.035650 -0.686350
O 0.964350 0.788720 0.338930 -0.686467
O 0.838930 0.964350 0.288720 -0.686330
O 0.788720 0.838930 0.464350 -0.685787
O 0.788720 0.964350 0.338930 -0.685777
O 0.964350 0.838930 0.288720 -0.686378
O 0.838930 0.788720 0.464350 -0.686328
O 0.964350 0.288720 0.838930 -0.686330
O 0.838930 0.464350 0.788720 -0.685778
O 0.788720 0.338930 0.964350 -0.686346
O 0.788720 0.464350 0.838930 -0.686358
O 0.964350 0.338930 0.788720 -0.685777
O 0.838930 0.288720 0.964350 -0.686504
O 0.464350 0.288720 0.338930 -0.686372
O 0.338930 0.464350 0.288720 -0.686314
O 0.288720 0.338930 0.464350 -0.686340
O 0.288720 0.464350 0.338930 -0.686472
O 0.464350 0.338930 0.288720 -0.686535
O 0.338930 0.288720 0.464350 -0.686505
O 0.535650 0.211280 0.838930 -0.686498
O 0.661070 0.035650 0.788720 -0.686419
O 0.535650 0.161070 0.788720 -0.685946
O 0.661070 0.211280 0.964350 -0.686361
O 0.464350 0.211280 0.161070 -0.685159
O 0.338930 0.211280 0.035650 -0.686653
O 0.338930 0.035650 0.211280 -0.686354
O 0.464350 0.161070 0.211280 -0.685080
O 0.661070 0.964350 0.211280 -0.685732
O 0.535650 0.838930 0.211280 -0.686674
O 0.711280 0.838930 0.035650 -0.686389
O 0.711280 0.964350 0.161070 -0.686354
O 0.711280 0.161070 0.964350 -0.686452
O 0.711280 0.035650 0.838930 -0.686583
O 0.964350 0.211280 0.338930 -0.686557
O 0.788720 0.161070 0.464350 -0.685923
O 0.788720 0.035650 0.338930 -0.686504
O 0.838930 0.211280 0.464350 -0.686547
O 0.788720 0.838930 0.535650 -0.686465
O 0.788720 0.964350 0.661070 -0.686515
O 0.964350 0.788720 0.661070 -0.685781
O 0.838930 0.788720 0.535650 -0.686384
O 0.035650 0.788720 0.338930 -0.685747
O 0.161070 0.788720 0.464350 -0.686559
O 0.161070 0.964350 0.288720 -0.686555
O 0.035650 0.838930 0.288720 -0.686368
O 0.838930 0.035650 0.288720 -0.686346
O 0.964350 0.161070 0.288720 -0.686475
O 0.161070 0.464350 0.788720 -0.686642
O 0.211280 0.338930 0.964350 -0.685801
O 0.211280 0.464350 0.838930 -0.686556
O 0.035650 0.338930 0.788720 -0.686505
O 0.964350 0.288720 0.161070 -0.686435
O 0.838930 0.288720 0.035650 -0.685777
O 0.035650 0.288720 0.838930 -0.686346
O 0.161070 0.288720 0.964350 -0.686482
O 0.838930 0.535650 0.788720 -0.686496
O 0.964350 0.661070 0.788720 -0.685929
O 0.788720 0.661070 0.964350 -0.686483
O 0.788720 0.535650 0.838930 -0.686407
O 0.788720 0.338930 0.035650 -0.686331
O 0.788720 0.464350 0.161070 -0.686548
O 0.661070 0.464350 0.288720 -0.686380
O 0.711280 0.338930 0.464350 -0.686378
O 0.711280 0.464350 0.338930 -0.685927
O 0.535650 0.338930 0.288720 -0.685768
O 0.464350 0.288720 0.661070 -0.686525
O 0.338930 0.464350 0.711280 -0.686405
O 0.464350 0.338930 0.711280 -0.686519
O 0.338930 0.288720 0.535650 -0.685737
O 0.464350 0.711280 0.338930 -0.685798
O 0.288720 0.661070 0.464350 -0.686405
O 0.288720 0.535650 0.338930 -0.685750
O 0.338930 0.711280 0.464350 -0.686644
O 0.535650 0.288720 0.338930 -0.686364
O 0.661070 0.288720 0.464350 -0.685926
O 0.338930 0.535650 0.288720 -0.686343
O 0.464350 0.661070 0.288720 -0.686517
O 0.288720 0.338930 0.535650 -0.686372
O 0.288720 0.464350 0.661070 -0.686643
O 0.464350 0.211280 0.838930 -0.686513
O 0.338930 0.211280 0.964350 -0.685895
O 0.788720 0.161070 0.535650 -0.686643
O 0.788720 0.035650 0.661070 -0.686475
O 0.161070 0.535650 0.788720 -0.685926
O 0.035650 0.661070 0.788720 -0.686598
O 0.711280 0.838930 0.964350 -0.686400
O 0.711280 0.964350 0.838930 -0.685911
O 0.161070 0.035650 0.288720 -0.685780
O 0.035650 0.161070 0.288720 -0.686514
O 0.035650 0.288720 0.161070 -0.686370
O 0.161070 0.288720 0.035650 -0.686490
Co 0.140550 0.000000 0.640550 1.289110
C 0.215490 0.117320 0.574880 0.054855
C 0.215490 0.074880 0.617320 0.054980
Co 0.140550 0.140550 0.500000 1.289111
Co 0.000000 0.640550 0.140550 1.289110
Co 0.140550 0.500000 0.140550 1.289113
Co 0.140550 0.640550 0.000000 1.289110
Co 0.500000 0.640550 0.640550 1.289113
Co 0.640550 0.500000 0.640550 1.289107
Co 0.640550 0.640550 0.500000 1.289110
Co 0.500000 0.859450 0.140550 1.289086
Co 0.140550 0.859450 0.500000 1.289129
Co 0.859450 0.500000 0.140550 1.289129
Co 0.359450 0.500000 0.640550 1.289121
Co 0.500000 0.640550 0.359450 1.289121
Co 0.640550 0.359450 0.500000 1.289121
Co 0.359450 0.000000 0.140550 1.289054
Co 0.640550 0.859450 0.000000 1.289057
Co 0.500000 0.809850 0.190150 1.343539
Co 0.000000 0.859450 0.640550 1.289120
Co 0.140550 0.000000 0.359450 1.289120
Co 0.859450 0.640550 0.000000 1.289117
Co 0.000000 0.640550 0.859450 1.289120
Co 0.500000 0.809850 0.809850 1.345953
Co 0.500000 0.859850 0.859850 1.286654
Co 0.309850 0.000000 0.809850 1.343995
Co 0.309850 0.809850 0.000000 1.343995
Co 0.000000 0.190150 0.690150 1.343980
Co 0.190150 0.000000 0.690150 1.343980
Co 0.190150 0.190150 0.500000 1.343980
Co 0.000000 0.690150 0.190150 1.343980
Co 0.190150 0.500000 0.190150 1.343986
Co 0.190150 0.690150 0.000000 1.343980
Co 0.500000 0.690150 0.690150 1.343984
Co 0.690150 0.500000 0.690150 1.343974
Co 0.690150 0.690150 0.500000 1.343980
C 0.200880 0.910040 0.589960 -0.027536
Co 0.190150 0.809850 0.500000 1.343531
Co 0.809850 0.500000 0.190150 1.343531
Co 0.309850 0.500000 0.690150 1.343741
Co 0.500000 0.690150 0.309850 1.343740
Co 0.690150 0.309850 0.500000 1.343741
Co 0.309850 0.000000 0.190150 1.343766
Co 0.690150 0.809850 0.000000 1.343771
Co 0.000000 0.809850 0.690150 1.343749
Co 0.190150 0.000000 0.309850 1.343749
Co 0.809850 0.690150 0.000000 1.343743
Co 0.000000 0.690150 0.809850 1.343751
C 0.410040 0.799120 0.910040 -0.027931
C 0.410040 0.910040 0.799120 -0.027911
C 0.299120 0.910040 0.910040 -0.027600
C 0.089960 0.200880 0.589960 -0.027507
C 0.089960 0.089960 0.700880 -0.027519
C 0.200880 0.089960 0.589960 -0.027553
C 0.089960 0.700880 0.089960 -0.027518
C 0.089960 0.589960 0.200880 -0.027553
C 0.200880 0.589960 0.089960 -0.027519
C 0.589960 0.700880 0.589960 -0.027529
C 0.589960 0.589960 0.700880 -0.027517
C 0.700880 0.589960 0.589960 -0.027510
C 0.410040 0.799120 0.089960 -0.027576
C 0.410040 0.910040 0.200880 -0.027603
C 0.589960 0.799120 0.910040 -0.027925
C 0.589960 0.910040 0.799120 -0.027915
C 0.410040 0.089960 0.799120 -0.027588
C 0.299120 0.089960 0.910040 -0.027552
C 0.299120 0.910040 0.089960 -0.027531
C 0.089960 0.799120 0.589960 -0.027540
C 0.284510 0.882680 0.074880 0.054862
C 0.284510 0.925120 0.117320 0.054991
C 0.074880 0.784510 0.617320 0.054862
C 0.200880 0.089960 0.410040 -0.027526
C 0.089960 0.200880 0.410040 -0.027534
C 0.910040 0.200880 0.589960 -0.027536
C 0.910040 0.089960 0.700880 -0.027531
C 0.089960 0.910040 0.700880 -0.027512
C 0.910040 0.589960 0.200880 -0.027529
C 0.799120 0.589960 0.089960 -0.027537
C 0.089960 0.700880 0.910040 -0.027546
C 0.910040 0.700880 0.089960 -0.027510
C 0.089960 0.410040 0.200880 -0.027544
C 0.200880 0.410040 0.089960 -0.027522
C 0.200880 0.589960 0.910040 -0.027523
C 0.410040 0.589960 0.700880 -0.027530
C 0.299120 0.589960 0.589960 -0.027537
C 0.589960 0.700880 0.410040 -0.027519
C 0.589960 0.589960 0.299120 -0.027527
C 0.589960 0.299120 0.589960 -0.027540
C 0.700880 0.410040 0.589960 -0.027523
C 0.410040 0.700880 0.589960 -0.027549
C 0.589960 0.410040 0.700880 -0.027523
C 0.700880 0.589960 0.410040 -0.027536
C 0.589960 0.799120 0.089960 -0.027592
C 0.200880 0.910040 0.410040 -0.027520
C 0.910040 0.410040 0.200880 -0.027531
C 0.299120 0.089960 0.089960 -0.027612
C 0.910040 0.910040 0.700880 -0.027533
C 0.910040 0.700880 0.910040 -0.027516
C 0.425120 0.784510 0.882680 0.054729
C 0.382680 0.925120 0.784510 0.054940
C 0.284510 0.882680 0.925120 0.054860
C 0.284510 0.925120 0.882680 0.055005
C 0.425120 0.882680 0.784510 0.054866
C 0.382680 0.784510 0.925120 0.055070
C 0.074880 0.215490 0.617320 0.054859
C 0.117320 0.074880 0.715490 0.054863
C 0.129170 0.246500 0.587330 -0.096164
C 0.087330 0.746500 0.129170 -0.094525
C 0.129170 0.587330 0.246500 -0.094696
C 0.246500 0.629170 0.087330 -0.094663
C 0.074880 0.117320 0.715490 0.054993
C 0.117320 0.215490 0.574880 0.054986
C 0.074880 0.715490 0.117320 0.054860
C 0.117320 0.574880 0.215490 0.054855
C 0.215490 0.617320 0.074880 0.054869
C 0.215490 0.574880 0.117320 0.054987
C 0.074880 0.617320 0.215490 0.054980
C 0.117320 0.715490 0.074880 0.054986
C 0.574880 0.715490 0.617320 0.054996
C 0.617320 0.574880 0.715490 0.054870
C 0.715490 0.617320 0.574880 0.054994
C 0.715490 0.574880 0.617320 0.054861
C 0.574880 0.617320 0.715490 0.054986
C 0.617320 0.715490 0.574880 0.054863
C 0.425120 0.784510 0.117320 0.054869
C 0.382680 0.925120 0.215490 0.054879
C 0.425120 0.882680 0.215490 0.054984
C 0.382680 0.784510 0.074880 0.054998
C 0.574880 0.784510 0.882680 0.054743
C 0.617320 0.784510 0.925120 0.055066
C 0.617320 0.925120 0.784510 0.055068
C 0.574880 0.882680 0.784510 0.054746
C 0.382680 0.074880 0.784510 0.054855
C 0.425120 0.117320 0.784510 0.054997
C 0.284510 0.117320 0.925120 0.054862
C 0.284510 0.074880 0.882680 0.054990
C 0.253500 0.587330 0.629170 -0.096278
C 0.412670 0.629170 0.746500 -0.096284
C 0.587330 0.746500 0.370830 -0.094560
C 0.629170 0.587330 0.253500 -0.094671
C 0.587330 0.629170 0.253500 -0.096345
C 0.215490 0.882680 0.574880 0.054851
C 0.215490 0.925120 0.617320 0.054992
C 0.117320 0.784510 0.574880 0.054989
C 0.215490 0.117320 0.425120 0.054990
C 0.215490 0.074880 0.382680 0.054859
C 0.074880 0.215490 0.382680 0.054978
C 0.117320 0.215490 0.425120 0.054872
C 0.925120 0.215490 0.617320 0.054854
C 0.882680 0.215490 0.574880 0.054998
C 0.882680 0.074880 0.715490 0.054860
C 0.925120 0.117320 0.715490 0.054987
C 0.117320 0.925120 0.715490 0.054870
C 0.074880 0.882680 0.715490 0.054996
C 0.882680 0.574880 0.215490 0.054862
C 0.784510 0.617320 0.074880 0.054853
C 0.784510 0.574880 0.117320 0.054999
C 0.925120 0.617320 0.215490 0.054987
C 0.074880 0.715490 0.882680 0.054874
C 0.117320 0.715490 0.925120 0.054978
C 0.925120 0.715490 0.117320 0.054867
C 0.882680 0.715490 0.074880 0.054988
C 0.117320 0.425120 0.215490 0.054994
C 0.074880 0.382680 0.215490 0.054850
C 0.215490 0.382680 0.074880 0.054865
C 0.215490 0.425120 0.117320 0.054992
C 0.215490 0.617320 0.925120 0.054862
C 0.215490 0.574880 0.882680 0.054986
C 0.382680 0.574880 0.715490 0.054866
C 0.284510 0.617320 0.574880 0.054867
C 0.284510 0.574880 0.617320 0.054975
C 0.425120 0.617320 0.715490 0.054975
C 0.574880 0.715490 0.382680 0.054865
C 0.617320 0.574880 0.284510 0.054872
C 0.574880 0.617320 0.284510 0.054996
C 0.617320 0.715490 0.425120 0.054975
C 0.574880 0.284510 0.617320 0.054851
C 0.715490 0.382680 0.574880 0.054873
C 0.715490 0.425120 0.617320 0.054977
C 0.617320 0.284510 0.574880 0.054992
C 0.425120 0.715490 0.617320 0.054867
C 0.382680 0.715490 0.574880 0.054977
C 0.617320 0.425120 0.715490 0.054861
C 0.574880 0.382680 0.715490 0.054986
C 0.715490 0.617320 0.425120 0.054860
C 0.715490 0.574880 0.382680 0.054989
C 0.574880 0.784510 0.117320 0.054881
C 0.617320 0.784510 0.074880 0.054981
C 0.215490 0.882680 0.425120 0.054863
C 0.215490 0.925120 0.382680 0.054996
C 0.882680 0.425120 0.215490 0.054849
C 0.925120 0.382680 0.215490 0.054994
C 0.284510 0.117320 0.074880 0.055008
C 0.284510 0.074880 0.117320 0.054860
C 0.882680 0.925120 0.715490 0.054977
C 0.925120 0.882680 0.715490 0.054864
C 0.925120 0.715490 0.882680 0.054988
C 0.882680 0.715490 0.925120 0.054867
C 0.412670 0.753500 0.870830 -0.094719
C 0.370830 0.912670 0.753500 -0.094488
C 0.253500 0.870830 0.912670 -0.094605
C 0.253500 0.912670 0.870830 -0.096380
C 0.412670 0.870830 0.753500 -0.096284
C 0.370830 0.753500 0.912670 -0.096214
C 0.087330 0.246500 0.629170 -0.094521
C 0.129170 0.087330 0.746500 -0.094536
C 0.246500 0.129170 0.587330 -0.094693
C 0.246500 0.087330 0.629170 -0.096322
C 0.087330 0.129170 0.746500 -0.096351
C 0.134770 0.697990 0.046410 0.519787
C 0.546410 0.697990 0.634770 0.519742
C 0.634770 0.546410 0.697990 0.519786
C 0.697990 0.634770 0.546410 0.519747
C 0.697990 0.546410 0.634770 0.519826
C 0.546410 0.634770 0.697990 0.519785
C 0.634770 0.697990 0.546410 0.519821
C 0.453590 0.802010 0.134770 0.519866
C 0.246500 0.587330 0.129170 -0.096223
C 0.087330 0.629170 0.246500 -0.096321
C 0.129170 0.746500 0.087330 -0.096218
C 0.587330 0.746500 0.629170 -0.096360
C 0.629170 0.587330 0.746500 -0.094607
C 0.746500 0.629170 0.587330 -0.096297
C 0.746500 0.587330 0.629170 -0.094525
C 0.587330 0.629170 0.746500 -0.096270
C 0.629170 0.746500 0.587330 -0.094586
C 0.412670 0.753500 0.129170 -0.094532
C 0.370830 0.912670 0.246500 -0.094761
C 0.412670 0.870830 0.246500 -0.096289
C 0.370830 0.753500 0.087330 -0.096353
C 0.587330 0.753500 0.870830 -0.094590
C 0.629170 0.753500 0.912670 -0.096223
C 0.629170 0.912670 0.753500 -0.096135
C 0.587330 0.870830 0.753500 -0.094772
C 0.370830 0.087330 0.753500 -0.094602
C 0.412670 0.129170 0.753500 -0.096248
C 0.253500 0.129170 0.912670 -0.094583
C 0.253500 0.087330 0.870830 -0.096225
C 0.253500 0.870830 0.087330 -0.094515
C 0.253500 0.912670 0.129170 -0.096149
C 0.087330 0.753500 0.629170 -0.094584
C 0.246500 0.870830 0.587330 -0.094587
C 0.246500 0.912670 0.629170 -0.096252
C 0.129170 0.753500 0.587330 -0.096219
C 0.246500 0.129170 0.412670 -0.096174
C 0.246500 0.087330 0.370830 -0.094572
C 0.087330 0.246500 0.370830 -0.096238
C 0.129170 0.246500 0.412670 -0.094749
C 0.912670 0.246500 0.629170 -0.094605
C 0.870830 0.246500 0.587330 -0.096377
C 0.870830 0.087330 0.746500 -0.094578
C 0.912670 0.129170 0.746500 -0.096223
C 0.129170 0.912670 0.746500 -0.094664
C 0.087330 0.870830 0.746500 -0.096292
C 0.870830 0.587330 0.246500 -0.094516
C 0.753500 0.629170 0.087330 -0.094606
C 0.753500 0.587330 0.129170 -0.096371
C 0.912670 0.629170 0.246500 -0.096219
C 0.087330 0.746500 0.870830 -0.094757
C 0.129170 0.746500 0.912670 -0.096293
C 0.912670 0.746500 0.129170 -0.094654
C 0.870830 0.746500 0.087330 -0.096161
C 0.129170 0.412670 0.246500 -0.096258
C 0.087330 0.370830 0.246500 -0.094645
C 0.246500 0.370830 0.087330 -0.094482
C 0.246500 0.412670 0.129170 -0.096397
C 0.246500 0.629170 0.912670 -0.094531
C 0.246500 0.587330 0.870830 -0.096213
C 0.370830 0.587330 0.746500 -0.094567
C 0.253500 0.629170 0.587330 -0.094568
C 0.466000 0.731900 0.256200 0.008375
C 0.466000 0.756200 0.231900 0.008391
C 0.256200 0.731900 0.534000 0.008544
C 0.231900 0.756200 0.534000 0.008398
C 0.268100 0.534000 0.743800 0.008543
C 0.243800 0.534000 0.768100 0.008397
C 0.268100 0.034000 0.243800 0.008494
C 0.243800 0.034000 0.268100 0.008315
C 0.743800 0.768100 0.034000 0.008489
C 0.768100 0.743800 0.034000 0.008319
C 0.629170 0.746500 0.412670 -0.096225
C 0.587330 0.253500 0.629170 -0.094598
C 0.746500 0.370830 0.587330 -0.094697
C 0.746500 0.412670 0.629170 -0.096235
C 0.629170 0.253500 0.587330 -0.096244
C 0.412670 0.746500 0.629170 -0.094629
C 0.370830 0.746500 0.587330 -0.096285
C 0.629170 0.412670 0.746500 -0.094533
C 0.587330 0.370830 0.746500 -0.096213
C 0.746500 0.629170 0.412670 -0.094585
C 0.746500 0.587330 0.370830 -0.096216
C 0.587330 0.753500 0.129170 -0.094696
C 0.629170 0.753500 0.087330 -0.096285
C 0.246500 0.870830 0.412670 -0.094521
C 0.246500 0.912670 0.370830 -0.096288
C 0.870830 0.412670 0.246500 -0.094584
C 0.912670 0.370830 0.246500 -0.096188
C 0.253500 0.129170 0.087330 -0.096382
C 0.253500 0.087330 0.129170 -0.094649
C 0.870830 0.912670 0.746500 -0.096231
C 0.912670 0.870830 0.746500 -0.094608
C 0.912670 0.746500 0.870830 -0.096170
C 0.870830 0.746500 0.912670 -0.094646
C 0.385640 0.738490 0.885640 0.112140
C 0.385640 0.885640 0.738490 0.112136
C 0.238490 0.885640 0.885640 0.112116
C 0.114360 0.261510 0.614360 0.112100
C 0.114360 0.114360 0.761510 0.112114
C 0.261510 0.114360 0.614360 0.112102
C 0.114360 0.761510 0.114360 0.112108
C 0.114360 0.614360 0.261510 0.112102
C 0.261510 0.614360 0.114360 0.112121
C 0.614360 0.761510 0.614360 0.112123
C 0.614360 0.614360 0.761510 0.112124
C 0.761510 0.614360 0.614360 0.112112
C 0.385640 0.738490 0.114360 0.112114
C 0.385640 0.885640 0.261510 0.112118
C 0.614360 0.738490 0.885640 0.112144
C 0.614360 0.885640 0.738490 0.112150
C 0.385640 0.114360 0.738490 0.112111
C 0.238490 0.114360 0.885640 0.112114
C 0.238490 0.885640 0.114360 0.112101
C 0.114360 0.738490 0.614360 0.112115
C 0.261510 0.885640 0.614360 0.112107
C 0.261510 0.114360 0.385640 0.112109
C 0.114360 0.261510 0.385640 0.112109
C 0.885640 0.261510 0.614360 0.112114
C 0.885640 0.114360 0.761510 0.112115
C 0.114360 0.885640 0.761510 0.112122
C 0.885640 0.614360 0.261510 0.112109
C 0.738490 0.614360 0.114360 0.112113
C 0.114360 0.761510 0.885640 0.112118
C 0.885640 0.761510 0.114360 0.112112
C 0.114360 0.385640 0.261510 0.112114
C 0.261510 0.385640 0.114360 0.112115
C 0.261510 0.614360 0.885640 0.112105
C 0.385640 0.614360 0.761510 0.112093
C 0.238490 0.614360 0.614360 0.112092
C 0.614360 0.761510 0.385640 0.112089
C 0.614360 0.614360 0.238490 0.112129
C 0.614360 0.238490 0.614360 0.112108
C 0.761510 0.385640 0.614360 0.112103
C 0.385640 0.761510 0.614360 0.112101
C 0.614360 0.385640 0.761510 0.112105
C 0.761510 0.614360 0.385640 0.112115
C 0.614360 0.738490 0.114360 0.112109
C 0.261510 0.885640 0.385640 0.112107
C 0.885640 0.385640 0.261510 0.112098
C 0.238490 0.114360 0.114360 0.112118
C 0.885640 0.885640 0.761510 0.112092
C 0.885640 0.761510 0.885640 0.112115
C 0.372700 0.704700 0.872700 -0.660212
C 0.372700 0.872700 0.704700 -0.660237
C 0.204700 0.872700 0.872700 -0.660201
C 0.127300 0.295300 0.627300 -0.660216
C 0.127300 0.127300 0.795300 -0.660215
C 0.295300 0.127300 0.627300 -0.660111
C 0.127300 0.795300 0.127300 -0.660234
C 0.127300 0.627300 0.295300 -0.660116
C 0.295300 0.627300 0.127300 -0.660269
C 0.627300 0.795300 0.627300 -0.660247
C 0.627300 0.627300 0.795300 -0.660280
C 0.795300 0.627300 0.627300 -0.660218
C 0.372700 0.704700 0.127300 -0.660218
C 0.372700 0.872700 0.295300 -0.660185
C 0.627300 0.704700 0.872700 -0.660255
C 0.627300 0.872700 0.704700 -0.660270
C 0.372700 0.127300 0.704700 -0.660227
C 0.204700 0.127300 0.872700 -0.660244
C 0.204700 0.872700 0.127300 -0.660226
C 0.127300 0.704700 0.627300 -0.660258
C 0.295300 0.872700 0.627300 -0.660217
C 0.295300 0.127300 0.372700 -0.660248
C 0.127300 0.295300 0.372700 -0.660165
C 0.872700 0.295300 0.627300 -0.660204
C 0.872700 0.127300 0.795300 -0.660245
C 0.127300 0.872700 0.795300 -0.660257
C 0.872700 0.627300 0.295300 -0.660244
C 0.704700 0.627300 0.127300 -0.660200
C 0.127300 0.795300 0.872700 -0.660185
C 0.872700 0.795300 0.127300 -0.660252
C 0.127300 0.372700 0.295300 -0.660237
C 0.295300 0.372700 0.127300 -0.660219
C 0.295300 0.627300 0.872700 -0.660230
C 0.372700 0.627300 0.795300 -0.660116
C 0.204700 0.627300 0.627300 -0.660114
C 0.627300 0.795300 0.372700 -0.660115
C 0.627300 0.627300 0.204700 -0.660271
C 0.627300 0.204700 0.627300 -0.660220
C 0.795300 0.372700 0.627300 -0.660157
C 0.372700 0.795300 0.627300 -0.660138
C 0.627300 0.372700 0.795300 -0.660226
C 0.795300 0.627300 0.372700 -0.660254
C 0.627300 0.704700 0.127300 -0.660167
C 0.295300 0.872700 0.372700 -0.660218
C 0.872700 0.372700 0.295300 -0.660200
C 0.204700 0.127300 0.127300 -0.660210
C 0.872700 0.872700 0.795300 -0.660119
C 0.872700 0.795300 0.872700 -0.660260
C 0.453590 0.802010 0.865230 0.519830
C 0.365230 0.953590 0.802010 0.519895
C 0.302010 0.865230 0.953590 0.519626
C 0.302010 0.953590 0.865230 0.519775
C 0.453590 0.865230 0.802010 0.519989
C 0.365230 0.802010 0.953590 0.519819
C 0.046410 0.197990 0.634770 0.519825
C 0.134770 0.046410 0.697990 0.519786
C 0.197990 0.134770 0.546410 0.519589
C 0.197990 0.046410 0.634770 0.519553
C 0.046410 0.134770 0.697990 0.519742
C 0.134770 0.197990 0.546410 0.519753
C 0.046410 0.697990 0.134770 0.519787
C 0.134770 0.546410 0.197990 0.519587
C 0.197990 0.634770 0.046410 0.519782
C 0.197990 0.546410 0.134770 0.519747
C 0.046410 0.634770 0.197990 0.519553
H 0.311800 0.109900 0.625500 0.185715
H 0.125500 0.811800 0.109900 0.185718
H 0.109900 0.625500 0.311800 0.185717
H 0.311800 0.609900 0.125500 0.185746
H 0.609900 0.625500 0.811800 0.185710
H 0.811800 0.625500 0.609900 0.185708
H 0.609900 0.811800 0.625500 0.185721
H 0.374500 0.688200 0.109900 0.185726
H 0.390100 0.874500 0.311800 0.185728
H 0.625500 0.688200 0.890100 0.185701
H 0.625500 0.890100 0.688200 0.185739
H 0.390100 0.125500 0.688200 0.185694
H 0.188200 0.109900 0.874500 0.185743
H 0.188200 0.890100 0.125500 0.185717
H 0.125500 0.688200 0.609900 0.185727
H 0.311800 0.890100 0.625500 0.185698
C 0.365230 0.953590 0.197990 0.519822
C 0.453590 0.865230 0.197990 0.519633
C 0.365230 0.802010 0.046410 0.519770
C 0.546410 0.802010 0.865230 0.520063
C 0.634770 0.802010 0.953590 0.519898
C 0.634770 0.953590 0.802010 0.519838
C 0.546410 0.865230 0.802010 0.520017
C 0.365230 0.046410 0.802010 0.519621
C 0.453590 0.134770 0.802010 0.519867
C 0.302010 0.134770 0.953590 0.519814
C 0.302010 0.046410 0.865230 0.519766
C 0.302010 0.865230 0.046410 0.519843
C 0.302010 0.953590 0.134770 0.519853
C 0.046410 0.802010 0.634770 0.519839
C 0.197990 0.865230 0.546410 0.519653
C 0.197990 0.953590 0.634770 0.519787
C 0.134770 0.802010 0.546410 0.519809
C 0.197990 0.134770 0.453590 0.519790
C 0.197990 0.046410 0.365230 0.519829
C 0.046410 0.197990 0.365230 0.519573
C 0.134770 0.197990 0.453590 0.519778
C 0.953590 0.197990 0.634770 0.519594
C 0.865230 0.197990 0.546410 0.519802
C 0.865230 0.046410 0.697990 0.519839
C 0.953590 0.134770 0.697990 0.519749
C 0.134770 0.953590 0.697990 0.519782
C 0.046410 0.865230 0.697990 0.519791
C 0.865230 0.546410 0.197990 0.519884
C 0.802010 0.634770 0.046410 0.519611
C 0.802010 0.546410 0.134770 0.519803
C 0.953590 0.634770 0.197990 0.519787
C 0.046410 0.697990 0.865230 0.519795
C 0.134770 0.697990 0.953590 0.519553
C 0.953590 0.697990 0.134770 0.519783
C 0.865230 0.697990 0.046410 0.519801
C 0.134770 0.453590 0.197990 0.519787
C 0.046410 0.365230 0.197990 0.519635
C 0.197990 0.365230 0.046410 0.519846
C 0.197990 0.453590 0.134770 0.519739
C 0.197990 0.634770 0.953590 0.519787
C 0.197990 0.546410 0.865230 0.519809
C 0.365230 0.546410 0.697990 0.519804
C 0.302010 0.634770 0.546410 0.519804
C 0.302010 0.546410 0.634770 0.519601
C 0.453590 0.634770 0.697990 0.519552
C 0.546410 0.697990 0.365230 0.519846
C 0.634770 0.546410 0.302010 0.519802
C 0.546410 0.634770 0.302010 0.519788
C 0.634770 0.697990 0.453590 0.519558
C 0.546410 0.302010 0.634770 0.519612
C 0.697990 0.365230 0.546410 0.519802
C 0.697990 0.453590 0.634770 0.519560
C 0.634770 0.302010 0.546410 0.519832
C 0.453590 0.697990 0.634770 0.519780
C 0.365230 0.697990 0.546410 0.519600
C 0.634770 0.453590 0.697990 0.519788
C 0.546410 0.365230 0.697990 0.519797
C 0.697990 0.634770 0.453590 0.519783
C 0.697990 0.546410 0.365230 0.519832
C 0.546410 0.802010 0.134770 0.519861
C 0.634770 0.802010 0.046410 0.519624
C 0.197990 0.865230 0.453590 0.519884
C 0.197990 0.953590 0.365230 0.519791
C 0.865230 0.453590 0.197990 0.519653
C 0.953590 0.365230 0.197990 0.519835
C 0.302010 0.134770 0.046410 0.519793
C 0.302010 0.046410 0.134770 0.519668
C 0.865230 0.953590 0.697990 0.519574
C 0.953590 0.865230 0.697990 0.519829
C 0.953590 0.697990 0.865230 0.519769
C 0.865230 0.697990 0.953590 0.519826
C 0.508400 0.714100 0.761600 0.010824
C 0.508400 0.738400 0.785900 0.010786
C 0.238400 0.785900 0.008400 0.010809
C 0.214100 0.761600 0.008400 0.010804
C 0.285900 0.238400 0.491600 0.010798
C 0.285900 0.991600 0.738400 0.010807
C 0.261600 0.214100 0.491600 0.010813
C 0.261600 0.991600 0.714100 0.010803
C 0.238400 0.491600 0.285900 0.010798
C 0.214100 0.491600 0.261600 0.010813
C 0.991600 0.714100 0.261600 0.010803
C 0.991600 0.738400 0.285900 0.010809
C 0.508400 0.761600 0.285900 0.011261
C 0.508400 0.785900 0.261600 0.010839
C 0.285900 0.761600 0.491600 0.010555
C 0.261600 0.785900 0.491600 0.010845
C 0.238400 0.491600 0.714100 0.010555
C 0.214100 0.491600 0.738400 0.010845
C 0.238400 0.991600 0.214100 0.010511
C 0.214100 0.991600 0.238400 0.011196
C 0.714100 0.738400 0.991600 0.010500
C 0.738400 0.714100 0.991600 0.011205
C 0.008400 0.714100 0.738400 0.010510
C 0.008400 0.738400 0.714100 0.011195
C 0.466000 0.743800 0.731900 0.008377
C 0.466000 0.768100 0.756200 0.008339
C 0.268100 0.756200 0.966000 0.008361
C 0.243800 0.731900 0.966000 0.008357
C 0.256200 0.268100 0.534000 0.008358
C 0.256200 0.034000 0.768100 0.008363
C 0.231900 0.243800 0.534000 0.008363
C 0.231900 0.034000 0.743800 0.008357
C 0.268100 0.534000 0.256200 0.008355
C 0.243800 0.534000 0.231900 0.008363
C 0.034000 0.743800 0.231900 0.008357
C 0.034000 0.768100 0.256200 0.008363
O 0.671850 0.621780 0.535710 -0.674218
O 0.671850 0.535710 0.621780 -0.674228
O 0.535710 0.621780 0.671850 -0.674239
O 0.621780 0.671850 0.535710 -0.674226
O 0.464290 0.828150 0.121780 -0.674292
O 0.378220 0.964290 0.171850 -0.674324
O 0.464290 0.878220 0.171850 -0.674330
O 0.378220 0.828150 0.035710 -0.674345
O 0.535710 0.828150 0.878220 -0.673782
O 0.621780 0.828150 0.964290 -0.674543
O 0.621780 0.964290 0.828150 -0.674532
O 0.535710 0.878220 0.828150 -0.673776
O 0.378220 0.035710 0.828150 -0.674341
O 0.464290 0.121780 0.828150 -0.674324
O 0.328150 0.121780 0.964290 -0.674274
O 0.328150 0.035710 0.878220 -0.674301
O 0.328150 0.878220 0.035710 -0.674278
O 0.328150 0.964290 0.121780 -0.674286
O 0.035710 0.828150 0.621780 -0.674222
O 0.171850 0.878220 0.535710 -0.674209
O 0.171850 0.964290 0.621780 -0.674245
C 0.966000 0.743800 0.768100 0.008495
C 0.966000 0.768100 0.743800 0.008314
C 0.523600 0.755200 0.721200 0.016961
C 0.523600 0.778800 0.744800 0.016883
C 0.278800 0.744800 0.023600 0.016942
C 0.255200 0.721200 0.023600 0.016903
C 0.244800 0.278800 0.476400 0.016943
C 0.244800 0.976400 0.778800 0.016941
C 0.221200 0.255200 0.476400 0.016901
C 0.221200 0.976400 0.755200 0.016902
C 0.278800 0.476400 0.244800 0.016905
C 0.255200 0.476400 0.221200 0.016940
C 0.976400 0.755200 0.221200 0.016903
C 0.976400 0.778800 0.244800 0.016942
C 0.523600 0.721200 0.244800 0.016787
C 0.523600 0.744800 0.221200 0.016957
C 0.244800 0.721200 0.476400 0.017284
C 0.221200 0.744800 0.476400 0.016993
C 0.278800 0.476400 0.755200 0.017284
C 0.255200 0.476400 0.778800 0.016994
C 0.278800 0.976400 0.255200 0.017227
C 0.255200 0.976400 0.278800 0.016729
C 0.755200 0.778800 0.976400 0.017267
C 0.778800 0.755200 0.976400 0.016690
C 0.023600 0.755200 0.778800 0.017227
C 0.023600 0.778800 0.755200 0.016728
H 0.418500 0.819200 0.918500 0.154303
H 0.418500 0.918500 0.819200 0.154298
H 0.319200 0.918500 0.918500 0.154557
H 0.081500 0.180800 0.581500 0.154609
H 0.081500 0.081500 0.680800 0.154609
H 0.180800 0.081500 0.581500 0.154618
H 0.081500 0.680800 0.081500 0.154609
H 0.081500 0.581500 0.180800 0.154618
H 0.180800 0.581500 0.081500 0.154609
H 0.581500 0.680800 0.581500 0.154610
H 0.581500 0.581500 0.680800 0.154609
H 0.680800 0.581500 0.581500 0.154608
H 0.418500 0.819200 0.081500 0.154571
H 0.418500 0.918500 0.180800 0.154575
H 0.581500 0.819200 0.918500 0.154298
H 0.581500 0.918500 0.819200 0.154298
H 0.418500 0.081500 0.819200 0.154575
H 0.319200 0.081500 0.918500 0.154583
H 0.319200 0.918500 0.081500 0.154581
H 0.081500 0.819200 0.581500 0.154609
H 0.180800 0.918500 0.581500 0.154612
H 0.180800 0.081500 0.418500 0.154609
H 0.081500 0.180800 0.418500 0.154613
H 0.918500 0.180800 0.581500 0.154612
H 0.918500 0.081500 0.680800 0.154610
H 0.081500 0.918500 0.680800 0.154608
H 0.918500 0.581500 0.180800 0.154608
H 0.819200 0.581500 0.081500 0.154612
H 0.081500 0.680800 0.918500 0.154613
H 0.918500 0.680800 0.081500 0.154609
H 0.081500 0.418500 0.180800 0.154614
H 0.180800 0.418500 0.081500 0.154609
H 0.180800 0.581500 0.918500 0.154609
H 0.418500 0.581500 0.680800 0.154613
H 0.319200 0.581500 0.581500 0.154613
H 0.581500 0.680800 0.418500 0.154612
H 0.581500 0.581500 0.319200 0.154609
H 0.581500 0.319200 0.581500 0.154613
H 0.680800 0.418500 0.581500 0.154612
H 0.418500 0.680800 0.581500 0.154614
H 0.581500 0.418500 0.680800 0.154610
H 0.680800 0.581500 0.418500 0.154610
H 0.581500 0.819200 0.081500 0.154574
H 0.180800 0.918500 0.418500 0.154608
H 0.918500 0.418500 0.180800 0.154612
H 0.319200 0.081500 0.081500 0.154557
H 0.918500 0.918500 0.680800 0.154613
H 0.918500 0.680800 0.918500 0.154608
H 0.423000 0.743200 0.852700 0.122852
H 0.352700 0.923000 0.743200 0.122471
H 0.243200 0.852700 0.923000 0.122907
H 0.243200 0.923000 0.852700 0.123943
H 0.423000 0.852700 0.743200 0.123696
H 0.352700 0.743200 0.923000 0.123738
H 0.077000 0.256800 0.647300 0.122484
H 0.147300 0.077000 0.756800 0.122515
H 0.256800 0.147300 0.577000 0.122906
H 0.256800 0.077000 0.647300 0.124147
H 0.077000 0.147300 0.756800 0.123941
H 0.147300 0.256800 0.577000 0.123752
H 0.077000 0.756800 0.147300 0.122515
H 0.147300 0.577000 0.256800 0.122906
H 0.256800 0.647300 0.077000 0.122708
H 0.256800 0.577000 0.147300 0.123747
H 0.077000 0.647300 0.256800 0.124147
H 0.147300 0.756800 0.077000 0.123716
H 0.577000 0.756800 0.647300 0.123943
H 0.647300 0.577000 0.756800 0.122709
H 0.756800 0.647300 0.577000 0.123945
H 0.756800 0.577000 0.647300 0.122479
H 0.577000 0.647300 0.756800 0.123713
H 0.647300 0.756800 0.577000 0.122479
H 0.423000 0.743200 0.147300 0.122513
H 0.352700 0.923000 0.256800 0.122702
H 0.423000 0.852700 0.256800 0.124141
H 0.352700 0.743200 0.077000 0.123940
H 0.577000 0.743200 0.852700 0.122431
H 0.647300 0.743200 0.923000 0.123700
H 0.647300 0.923000 0.743200 0.123739
H 0.577000 0.852700 0.743200 0.122647
H 0.352700 0.077000 0.743200 0.122907
H 0.423000 0.147300 0.743200 0.123714
H 0.243200 0.147300 0.923000 0.122509
H 0.243200 0.077000 0.852700 0.123747
H 0.243200 0.852700 0.077000 0.122483
H 0.243200 0.923000 0.147300 0.123719
H 0.077000 0.743200 0.647300 0.122477
H 0.256800 0.852700 0.577000 0.122906
H 0.256800 0.923000 0.647300 0.123719
H 0.147300 0.743200 0.577000 0.123744
H 0.256800 0.147300 0.423000 0.123721
H 0.256800 0.077000 0.352700 0.122508
H 0.077000 0.256800 0.352700 0.124149
H 0.147300 0.256800 0.423000 0.122705
H 0.923000 0.256800 0.647300 0.122908
H 0.852700 0.256800 0.577000 0.123940
H 0.852700 0.077000 0.756800 0.122478
H 0.923000 0.147300 0.756800 0.123747
H 0.147300 0.923000 0.756800 0.122707
H 0.077000 0.852700 0.756800 0.123945
H 0.852700 0.577000 0.256800 0.122483
H 0.743200 0.647300 0.077000 0.122908
H 0.743200 0.577000 0.147300 0.123940
H 0.923000 0.647300 0.256800 0.123716
H 0.077000 0.756800 0.852700 0.122703
H 0.147300 0.756800 0.923000 0.124144
H 0.923000 0.756800 0.147300 0.122707
H 0.852700 0.756800 0.077000 0.123751
H 0.147300 0.423000 0.256800 0.123723
H 0.077000 0.352700 0.256800 0.122901
H 0.256800 0.352700 0.077000 0.122484
H 0.256800 0.423000 0.147300 0.123939
H 0.256800 0.647300 0.923000 0.122515
H 0.256800 0.577000 0.852700 0.123744
H 0.352700 0.577000 0.756800 0.122518
H 0.243200 0.647300 0.577000 0.122518
H 0.243200 0.577000 0.647300 0.124142
H 0.423000 0.647300 0.756800 0.124142
H 0.577000 0.756800 0.352700 0.122484
H 0.647300 0.577000 0.243200 0.122704
H 0.577000 0.647300 0.243200 0.123940
H 0.647300 0.756800 0.423000 0.124148
H 0.577000 0.243200 0.647300 0.122908
H 0.756800 0.352700 0.577000 0.122706
H 0.756800 0.423000 0.647300 0.124148
H 0.647300 0.243200 0.577000 0.123719
H 0.423000 0.756800 0.647300 0.122512
H 0.352700 0.756800 0.577000 0.124142
H 0.647300 0.423000 0.756800 0.122515
H 0.577000 0.352700 0.756800 0.123746
H 0.756800 0.647300 0.423000 0.122510
H 0.756800 0.577000 0.352700 0.123717
H 0.577000 0.743200 0.147300 0.122708
H 0.647300 0.743200 0.077000 0.124141
H 0.256800 0.852700 0.423000 0.122482
H 0.256800 0.923000 0.352700 0.123944
H 0.852700 0.423000 0.256800 0.122906
H 0.923000 0.352700 0.256800 0.123724
H 0.243200 0.147300 0.077000 0.123946
H 0.243200 0.077000 0.147300 0.122900
H 0.852700 0.923000 0.756800 0.124149
H 0.923000 0.852700 0.756800 0.122511
H 0.923000 0.756800 0.852700 0.123752
H 0.852700 0.756800 0.923000 0.122702
H 0.385800 0.697800 0.853800 0.182764
H 0.353800 0.885800 0.697800 0.182649
H 0.197800 0.853800 0.885800 0.182760
H 0.114200 0.302200 0.646200 0.182649
H 0.146200 0.114200 0.802200 0.182658
H 0.302200 0.146200 0.614200 0.182732
H 0.114200 0.802200 0.146200 0.182667
H 0.146200 0.614200 0.302200 0.182731
H 0.302200 0.646200 0.114200 0.182682
H 0.646200 0.614200 0.802200 0.182689
H 0.802200 0.614200 0.646200 0.182643
H 0.646200 0.802200 0.614200 0.182646
H 0.385800 0.697800 0.146200 0.182659
H 0.353800 0.885800 0.302200 0.182649
H 0.614200 0.697800 0.853800 0.182657
H 0.614200 0.853800 0.697800 0.182679
H 0.353800 0.114200 0.697800 0.182768
H 0.197800 0.146200 0.885800 0.182662
H 0.197800 0.853800 0.114200 0.182653
H 0.114200 0.697800 0.646200 0.182649
H 0.302200 0.853800 0.614200 0.182769
H 0.302200 0.114200 0.353800 0.182663
H 0.146200 0.302200 0.385800 0.182647
H 0.885800 0.302200 0.646200 0.182759
H 0.853800 0.114200 0.802200 0.182650
H 0.146200 0.885800 0.802200 0.182675
H 0.853800 0.614200 0.302200 0.182656
H 0.697800 0.646200 0.114200 0.182760
H 0.114200 0.802200 0.853800 0.182649
H 0.885800 0.802200 0.146200 0.182680
H 0.114200 0.353800 0.302200 0.182767
H 0.302200 0.353800 0.114200 0.182649
H 0.302200 0.646200 0.885800 0.182662
H 0.353800 0.614200 0.802200 0.182632
H 0.197800 0.646200 0.614200 0.182631
H 0.614200 0.802200 0.353800 0.182615
H 0.646200 0.614200 0.197800 0.182676
H 0.614200 0.197800 0.646200 0.182767
H 0.802200 0.353800 0.614200 0.182646
H 0.385800 0.802200 0.646200 0.182628
H 0.646200 0.385800 0.802200 0.182663
H 0.802200 0.646200 0.385800 0.182665
H 0.614200 0.697800 0.146200 0.182651
H 0.302200 0.853800 0.385800 0.182644
H 0.853800 0.385800 0.302200 0.182767
H 0.197800 0.114200 0.146200 0.182759
H 0.885800 0.853800 0.802200 0.182627
H 0.853800 0.802200 0.885800 0.182679
H 0.349700 0.706900 0.866100 0.183915
H 0.366100 0.849700 0.706900 0.183930
H 0.206900 0.866100 0.849700 0.183906
H 0.150300 0.293100 0.633900 0.183933
H 0.133900 0.150300 0.793100 0.183914
H 0.293100 0.133900 0.650300 0.183955
H 0.150300 0.793100 0.133900 0.183945
H 0.133900 0.650300 0.293100 0.183951
H 0.293100 0.633900 0.150300 0.183922
H 0.633900 0.650300 0.793100 0.183943
H 0.793100 0.650300 0.633900 0.183936
H 0.633900 0.793100 0.650300 0.183923
H 0.349700 0.706900 0.133900 0.183916
H 0.366100 0.849700 0.293100 0.183965
H 0.650300 0.706900 0.866100 0.183955
H 0.650300 0.866100 0.706900 0.183934
H 0.366100 0.150300 0.706900 0.183939
H 0.206900 0.133900 0.849700 0.183925
H 0.206900 0.866100 0.150300 0.183954
H 0.150300 0.706900 0.633900 0.183941
H 0.293100 0.866100 0.650300 0.183938
H 0.293100 0.150300 0.366100 0.183944
H 0.133900 0.293100 0.349700 0.183956
H 0.849700 0.293100 0.633900 0.183907
H 0.866100 0.150300 0.793100 0.183944
H 0.133900 0.849700 0.793100 0.183909
H 0.866100 0.650300 0.293100 0.183959
H 0.706900 0.633900 0.150300 0.183907
H 0.150300 0.793100 0.866100 0.183956
H 0.849700 0.793100 0.133900 0.183916
H 0.150300 0.366100 0.293100 0.183930
H 0.293100 0.366100 0.150300 0.183928
H 0.293100 0.633900 0.849700 0.183918
H 0.366100 0.650300 0.793100 0.183948
H 0.206900 0.633900 0.650300 0.183952
H 0.650300 0.793100 0.366100 0.183961
H 0.633900 0.650300 0.206900 0.183916
H 0.650300 0.206900 0.633900 0.183937
H 0.793100 0.366100 0.650300 0.183946
H 0.349700 0.793100 0.633900 0.183960
H 0.633900 0.349700 0.793100 0.183919
H 0.793100 0.633900 0.349700 0.183953
H 0.650300 0.706900 0.133900 0.183953
H 0.293100 0.866100 0.349700 0.183925
H 0.866100 0.349700 0.293100 0.183932
H 0.206900 0.150300 0.133900 0.183900
H 0.849700 0.866100 0.793100 0.183950
H 0.866100 0.793100 0.849700 0.183928
H 0.374500 0.688200 0.890100 0.185731
H 0.390100 0.874500 0.688200 0.185742
H 0.188200 0.890100 0.874500 0.185709
H 0.125500 0.311800 0.609900 0.185744
H 0.109900 0.125500 0.811800 0.185729
H 0.311800 0.125500 0.390100 0.185721
H 0.109900 0.311800 0.374500 0.185743
H 0.874500 0.311800 0.609900 0.185705
H 0.890100 0.125500 0.811800 0.185728
H 0.109900 0.874500 0.811800 0.185733
H 0.890100 0.625500 0.311800 0.185704
H 0.688200 0.609900 0.125500 0.185707
H 0.125500 0.811800 0.890100 0.185735
H 0.874500 0.811800 0.109900 0.185758
H 0.125500 0.390100 0.311800 0.185707
H 0.311800 0.390100 0.125500 0.185710
H 0.311800 0.609900 0.874500 0.185749
H 0.390100 0.625500 0.811800 0.185746
H 0.188200 0.609900 0.625500 0.185744
H 0.625500 0.811800 0.390100 0.185738
H 0.609900 0.625500 0.188200 0.185721
H 0.625500 0.188200 0.609900 0.185697
H 0.811800 0.390100 0.625500 0.185749
H 0.374500 0.811800 0.609900 0.185737
H 0.609900 0.374500 0.811800 0.185749
H 0.811800 0.609900 0.374500 0.185711
H 0.625500 0.688200 0.109900 0.185737
H 0.311800 0.890100 0.374500 0.185720
H 0.890100 0.374500 0.311800 0.185711
H 0.188200 0.125500 0.109900 0.185720
H 0.874500 0.890100 0.811800 0.185751
H 0.890100 0.811800 0.874500 0.185743
H 0.464700 0.756950 0.707350 0.088228
H 0.535300 0.707350 0.756950 0.087608
H 0.535300 0.743050 0.792650 0.087466
H 0.243050 0.792650 0.035300 0.087540
H 0.464700 0.792650 0.743050 0.088237
H 0.292650 0.743050 0.964700 0.088313
H 0.256950 0.707350 0.964700 0.088238
H 0.207350 0.756950 0.035300 0.087619
H 0.243050 0.292650 0.535300 0.088230
H 0.292650 0.243050 0.464700 0.087533
H 0.292650 0.964700 0.743050 0.087537
H 0.243050 0.035300 0.792650 0.088314
H 0.207350 0.035300 0.756950 0.088238
H 0.256950 0.207350 0.464700 0.087624
H 0.256950 0.964700 0.707350 0.087617
H 0.207350 0.256950 0.535300 0.088323
H 0.292650 0.535300 0.243050 0.088237
H 0.243050 0.464700 0.292650 0.087543
H 0.035300 0.756950 0.207350 0.088239
H 0.207350 0.464700 0.256950 0.087614
H 0.256950 0.535300 0.207350 0.088315
H 0.964700 0.707350 0.256950 0.087618
H 0.964700 0.743050 0.292650 0.087540
H 0.035300 0.792650 0.243050 0.088315
H 0.535300 0.756950 0.292650 0.087528
H 0.464700 0.707350 0.243050 0.088208
H 0.464700 0.743050 0.207350 0.088156
H 0.535300 0.792650 0.256950 0.087535
H 0.243050 0.707350 0.535300 0.088275
H 0.292650 0.756950 0.464700 0.087557
H 0.256950 0.792650 0.464700 0.087471
H 0.207350 0.743050 0.535300 0.088247
H 0.292650 0.535300 0.756950 0.088275
H 0.243050 0.464700 0.707350 0.087558
H 0.207350 0.464700 0.743050 0.087472
H 0.256950 0.535300 0.792650 0.088247
H 0.292650 0.035300 0.256950 0.088351
H 0.243050 0.964700 0.207350 0.087557
H 0.207350 0.964700 0.243050 0.087528
H 0.256950 0.035300 0.292650 0.088127
H 0.756950 0.792650 0.035300 0.088259
H 0.707350 0.743050 0.964700 0.087538
H 0.743050 0.707350 0.964700 0.087545
H 0.792650 0.756950 0.035300 0.088221
H 0.964700 0.756950 0.792650 0.088352
H 0.035300 0.707350 0.743050 0.087556
H 0.035300 0.743050 0.707350 0.087527
H 0.964700 0.792650 0.756950 0.088127
H 0.512650 0.766250 0.698150 0.084793
H 0.487350 0.698150 0.766250 0.086506
H 0.487350 0.733750 0.801850 0.086414
H 0.233750 0.801850 0.987350 0.086495
H 0.512650 0.801850 0.733750 0.084677
H 0.301850 0.733750 0.012650 0.084779
H 0.266250 0.698150 0.012650 0.084776
H 0.198150 0.766250 0.987350 0.086506
H 0.233750 0.301850 0.487350 0.084793
H 0.301850 0.233750 0.512650 0.086523
H 0.301850 0.012650 0.733750 0.086493
H 0.233750 0.987350 0.801850 0.084779
H 0.198150 0.987350 0.766250 0.084776
H 0.266250 0.198150 0.512650 0.086477
H 0.266250 0.012650 0.698150 0.086505
H 0.198150 0.266250 0.487350 0.084759
H 0.301850 0.487350 0.233750 0.084775
H 0.233750 0.512650 0.301850 0.086522
H 0.987350 0.766250 0.198150 0.084777
H 0.198150 0.512650 0.266250 0.086477
H 0.266250 0.487350 0.198150 0.084781
H 0.012650 0.698150 0.266250 0.086505
H 0.012650 0.733750 0.301850 0.086495
H 0.987350 0.801850 0.233750 0.084780
H 0.487350 0.766250 0.301850 0.086510
H 0.512650 0.698150 0.233750 0.084668
H 0.512650 0.733750 0.198150 0.084693
H 0.487350 0.801850 0.266250 0.086424
H 0.233750 0.698150 0.487350 0.084809
H 0.301850 0.766250 0.512650 0.086417
H 0.266250 0.801850 0.512650 0.086424
H 0.198150 0.733750 0.487350 0.084700
H 0.301850 0.487350 0.766250 0.084810
H 0.233750 0.512650 0.698150 0.086418
H 0.198150 0.512650 0.733750 0.086424
H 0.266250 0.487350 0.801850 0.084702
H 0.301850 0.987350 0.266250 0.084788
H 0.233750 0.012650 0.198150 0.086385
H 0.198150 0.012650 0.233750 0.086543
H 0.266250 0.987350 0.301850 0.084683
H 0.766250 0.801850 0.987350 0.084828
H 0.698150 0.733750 0.012650 0.086412
H 0.733750 0.698150 0.012650 0.086513
H 0.801850 0.766250 0.987350 0.084649
H 0.012650 0.766250 0.801850 0.084791
H 0.987350 0.698150 0.733750 0.086385
H 0.987350 0.733750 0.698150 0.086542
H 0.012650 0.801850 0.766250 0.084685
H 0.548100 0.741400 0.722950 0.084024
H 0.451900 0.722950 0.741400 0.086479
H 0.451900 0.758600 0.777050 0.086369
H 0.258600 0.777050 0.951900 0.086446
H 0.548100 0.777050 0.758600 0.083979
H 0.277050 0.758600 0.048100 0.084053
H 0.241400 0.722950 0.048100 0.084028
H 0.222950 0.741400 0.951900 0.086479
H 0.258600 0.277050 0.451900 0.084054
H 0.277050 0.258600 0.548100 0.086482
H 0.277050 0.048100 0.758600 0.086449
H 0.258600 0.951900 0.777050 0.084050
H 0.222950 0.951900 0.741400 0.084026
H 0.241400 0.222950 0.548100 0.086449
H 0.241400 0.048100 0.722950 0.086480
H 0.222950 0.241400 0.451900 0.084027
H 0.277050 0.451900 0.258600 0.084058
H 0.258600 0.548100 0.277050 0.086478
H 0.951900 0.741400 0.222950 0.084028
H 0.222950 0.548100 0.241400 0.086448
H 0.241400 0.451900 0.222950 0.084025
H 0.048100 0.722950 0.241400 0.086480
H 0.048100 0.758600 0.277050 0.086449
H 0.951900 0.777050 0.258600 0.084053
H 0.451900 0.741400 0.277050 0.086462
H 0.548100 0.722950 0.258600 0.084029
H 0.548100 0.758600 0.222950 0.083958
H 0.451900 0.777050 0.241400 0.086414
H 0.258600 0.722950 0.451900 0.083971
H 0.277050 0.741400 0.548100 0.086396
H 0.241400 0.777050 0.548100 0.086367
H 0.222950 0.758600 0.451900 0.083962
H 0.277050 0.451900 0.741400 0.083973
H 0.258600 0.548100 0.722950 0.086395
H 0.222950 0.548100 0.758600 0.086365
H 0.241400 0.451900 0.777050 0.083964
H 0.277050 0.951900 0.241400 0.083983
H 0.258600 0.048100 0.222950 0.086370
H 0.222950 0.048100 0.258600 0.086484
H 0.241400 0.951900 0.277050 0.084021
H 0.741400 0.777050 0.951900 0.083977
H 0.722950 0.758600 0.048100 0.086403
H 0.758600 0.722950 0.048100 0.086450
H 0.777050 0.741400 0.951900 0.084024
H 0.048100 0.741400 0.777050 0.083981
H 0.951900 0.722950 0.758600 0.086371
H 0.951900 0.758600 0.722950 0.086483
H 0.048100 0.777050 0.741400 0.084019
N 0.500000 0.728900 0.728900 -0.417531
N 0.500000 0.771100 0.771100 -0.417937
N 0.271100 0.771100 0.000000 -0.417575
N 0.228900 0.728900 0.000000 -0.417560
N 0.271100 0.271100 0.500000 -0.417565
N 0.271100 0.000000 0.771100 -0.417575
N 0.228900 0.000000 0.728900 -0.417559
N 0.228900 0.228900 0.500000 -0.417568
N 0.271100 0.500000 0.271100 -0.417558
N 0.000000 0.728900 0.228900 -0.417560
N 0.228900 0.500000 0.228900 -0.417574
N 0.000000 0.771100 0.271100 -0.417573
N 0.500000 0.729000 0.271100 -0.416944
N 0.500000 0.771000 0.229000 -0.416621
N 0.271000 0.728900 0.500000 -0.416950
N 0.229000 0.771000 0.500000 -0.416634
N 0.271100 0.500000 0.729000 -0.416951
N 0.229000 0.500000 0.771000 -0.416634
N 0.271100 0.000000 0.229000 -0.417061
N 0.228900 0.000000 0.271000 -0.417037
N 0.729000 0.771100 0.000000 -0.417059
N 0.771000 0.728900 0.000000 -0.417039
N 0.000000 0.729000 0.771100 -0.417058
N 0.000000 0.771000 0.728900 -0.417037
O 0.464290 0.828150 0.878220 -0.673792
O 0.378220 0.964290 0.828150 -0.674525
O 0.328150 0.878220 0.964290 -0.674364
O 0.328150 0.964290 0.878220 -0.674369
O 0.464290 0.878220 0.828150 -0.673797
O 0.378220 0.828150 0.964290 -0.674546
O 0.035710 0.171850 0.621780 -0.674217
O 0.121780 0.035710 0.671850 -0.674211
O 0.171850 0.121780 0.535710 -0.674235
O 0.171850 0.035710 0.621780 -0.674251
O 0.035710 0.121780 0.671850 -0.674228
O 0.121780 0.171850 0.535710 -0.674227
O 0.035710 0.671850 0.121780 -0.674211
O 0.121780 0.535710 0.171850 -0.674231
O 0.171850 0.621780 0.035710 -0.674199
O 0.171850 0.535710 0.121780 -0.674233
O 0.035710 0.621780 0.171850 -0.674251
O 0.121780 0.671850 0.035710 -0.674243
O 0.535710 0.671850 0.621780 -0.674215
O 0.621780 0.535710 0.671850 -0.674200
O 0.121780 0.828150 0.535710 -0.674227
O 0.171850 0.121780 0.464290 -0.674234
O 0.171850 0.035710 0.378220 -0.674218
O 0.035710 0.171850 0.378220 -0.674233
O 0.121780 0.171850 0.464290 -0.674210
O 0.964290 0.171850 0.621780 -0.674221
O 0.878220 0.171850 0.535710 -0.674214
O 0.878220 0.035710 0.671850 -0.674221
O 0.964290 0.121780 0.671850 -0.674239
O 0.121780 0.964290 0.671850 -0.674198
O 0.035710 0.878220 0.671850 -0.674207
O 0.878220 0.535710 0.171850 -0.674205
O 0.828150 0.621780 0.035710 -0.674221
O 0.828150 0.535710 0.121780 -0.674211
O 0.964290 0.621780 0.171850 -0.674247
O 0.035710 0.671850 0.878220 -0.674205
O 0.121780 0.671850 0.964290 -0.674250
O 0.964290 0.671850 0.121780 -0.674198
O 0.878220 0.671850 0.035710 -0.674225
O 0.121780 0.464290 0.171850 -0.674232
O 0.035710 0.378220 0.171850 -0.674226
O 0.171850 0.378220 0.035710 -0.674211
O 0.171850 0.464290 0.121780 -0.674224
O 0.171850 0.621780 0.964290 -0.674212
O 0.171850 0.535710 0.878220 -0.674225
O 0.378220 0.535710 0.671850 -0.674205
O 0.328150 0.621780 0.535710 -0.674204
O 0.328150 0.535710 0.621780 -0.674244
O 0.464290 0.621780 0.671850 -0.674243
O 0.535710 0.671850 0.378220 -0.674210
O 0.621780 0.535710 0.328150 -0.674192
O 0.535710 0.621780 0.328150 -0.674218
O 0.621780 0.671850 0.464290 -0.674237
O 0.535710 0.328150 0.621780 -0.674216
O 0.671850 0.378220 0.535710 -0.674192
O 0.671850 0.464290 0.621780 -0.674243
O 0.621780 0.328150 0.535710 -0.674238
O 0.464290 0.671850 0.621780 -0.674221
O 0.378220 0.671850 0.535710 -0.674244
O 0.621780 0.464290 0.671850 -0.674218
O 0.535710 0.378220 0.671850 -0.674231
O 0.671850 0.621780 0.464290 -0.674226
O 0.671850 0.535710 0.378220 -0.674237
O 0.535710 0.828150 0.121780 -0.674279
O 0.621780 0.828150 0.035710 -0.674357
O 0.171850 0.878220 0.464290 -0.674204
O 0.171850 0.964290 0.378220 -0.674209
O 0.878220 0.464290 0.171850 -0.674211
O 0.964290 0.378220 0.171850 -0.674225
O 0.328150 0.121780 0.035710 -0.674348
O 0.328150 0.035710 0.121780 -0.674367
O 0.878220 0.964290 0.671850 -0.674231
O 0.964290 0.878220 0.671850 -0.674215
O 0.964290 0.671850 0.878220 -0.674222
O 0.878220 0.671850 0.964290 -0.674205
O 0.464350 0.788720 0.838930 -0.684487
O 0.338930 0.964350 0.788720 -0.686450
O 0.288720 0.838930 0.964350 -0.685731
O 0.288720 0.964350 0.838930 -0.686360
O 0.464350 0.838930 0.788720 -0.685065
O 0.338930 0.788720 0.964350 -0.686350
O 0.035650 0.211280 0.661070 -0.686467
O 0.161070 0.035650 0.711280 -0.686330
O 0.211280 0.161070 0.535650 -0.685787
O 0.211280 0.035650 0.661070 -0.685777
O 0.035650 0.161070 0.711280 -0.686378
O 0.161070 0.211280 0.535650 -0.686328
O 0.035650 0.711280 0.161070 -0.686330
O 0.161070 0.535650 0.211280 -0.685778
O 0.211280 0.661070 0.035650 -0.686346
O 0.211280 0.535650 0.161070 -0.686358
O 0.035650 0.661070 0.211280 -0.685777
O 0.161070 0.711280 0.035650 -0.686504
O 0.535650 0.711280 0.661070 -0.686372
O 0.661070 0.535650 0.711280 -0.686314
O 0.711280 0.661070 0.535650 -0.686340
O 0.711280 0.535650 0.661070 -0.686472
O 0.535650 0.661070 0.711280 -0.686535
O 0.661070 0.711280 0.535650 -0.686505
O 0.464350 0.788720 0.161070 -0.686498
O 0.338930 0.964350 0.211280 -0.686419
O 0.464350 0.838930 0.211280 -0.685946
O 0.338930 0.788720 0.035650 -0.686361
O 0.535650 0.788720 0.838930 -0.685159
O 0.661070 0.788720 0.964350 -0.686653
O 0.661070 0.964350 0.788720 -0.686354
O 0.535650 0.838930 0.788720 -0.685080
O 0.338930 0.035650 0.788720 -0.685732
O 0.464350 0.161070 0.788720 -0.686674
O 0.288720 0.161070 0.964350 -0.686389
O 0.288720 0.035650 0.838930 -0.686354
O 0.288720 0.838930 0.035650 -0.686452
O 0.288720 0.964350 0.161070 -0.686583
O 0.035650 0.788720 0.661070 -0.686557
O 0.211280 0.838930 0.535650 -0.685923
O 0.211280 0.964350 0.661070 -0.686504
O 0.161070 0.788720 0.535650 -0.686547
O 0.211280 0.161070 0.464350 -0.686465
O 0.211280 0.035650 0.338930 -0.686515
O 0.035650 0.211280 0.338930 -0.685781
O 0.161070 0.211280 0.464350 -0.686384
O 0.964350 0.211280 0.661070 -0.685747
O 0.838930 0.211280 0.535650 -0.686559
O 0.838930 0.035650 0.711280 -0.686555
O 0.964350 0.161070 0.711280 -0.686368
O 0.161070 0.964350 0.711280 -0.686346
O 0.035650 0.838930 0.711280 -0.686475
O 0.838930 0.535650 0.211280 -0.686642
O 0.788720 0.661070 0.035650 -0.685801
O 0.788720 0.535650 0.161070 -0.686556
O 0.964350 0.661070 0.211280 -0.686505
O 0.035650 0.711280 0.838930 -0.686435
O 0.161070 0.711280 0.964350 -0.685777
O 0.964350 0.711280 0.161070 -0.686346
O 0.838930 0.711280 0.035650 -0.686482
O 0.161070 0.464350 0.211280 -0.686496
O 0.035650 0.338930 0.211280 -0.685929
O 0.211280 0.338930 0.035650 -0.686483
O 0.211280 0.464350 0.161070 -0.686407
O 0.211280 0.661070 0.964350 -0.686331
O 0.211280 0.535650 0.838930 -0.686548
O 0.338930 0.535650 0.711280 -0.686380
O 0.288720 0.661070 0.535650 -0.686378
O 0.288720 0.535650 0.661070 -0.685927
O 0.464350 0.661070 0.711280 -0.685768
O 0.535650 0.711280 0.338930 -0.686525
O 0.661070 0.535650 0.288720 -0.686405
O 0.535650 0.661070 0.288720 -0.686519
O 0.661070 0.711280 0.464350 -0.685737
O 0.535650 0.288720 0.661070 -0.685798
O 0.711280 0.338930 0.535650 -0.686405
O 0.711280 0.464350 0.661070 -0.685750
O 0.661070 0.288720 0.535650 -0.686644
O 0.464350 0.711280 0.661070 -0.686364
O 0.338930 0.711280 0.535650 -0.685926
O 0.661070 0.464350 0.711280 -0.686343
O 0.535650 0.338930 0.711280 -0.686517
O 0.711280 0.661070 0.464350 -0.686372
O 0.711280 0.535650 0.338930 -0.686643
O 0.535650 0.788720 0.161070 -0.686513
O 0.661070 0.788720 0.035650 -0.685895
O 0.211280 0.838930 0.464350 -0.686643
O 0.211280 0.964350 0.338930 -0.686475
O 0.838930 0.464350 0.211280 -0.685926
O 0.964350 0.338930 0.211280 -0.686598
O 0.288720 0.161070 0.035650 -0.686400
O 0.288720 0.035650 0.161070 -0.685911
O 0.838930 0.964350 0.711280 -0.685780
O 0.964350 0.838930 0.711280 -0.686514
O 0.964350 0.711280 0.838930 -0.686370
O 0.838930 0.711280 0.964350 -0.686490
