# CIF file generated by openbabel 2.4.1, see http://openbabel.sf.net
data_I
_chemical_name_common 'eric260_sq'
_cell_length_a 29.526
_cell_length_b 29.7496
_cell_length_c 42.4158
_cell_angle_alpha 90
_cell_angle_beta 90.473
_cell_angle_gamma 90
_space_group_name_H-M_alt 'P 1'
_space_group_name_Hall 'P 1'
loop_
    _symmetry_equiv_pos_as_xyz
    x,y,z
loop_
    _atom_site_label
    _atom_site_type_symbol
    _atom_site_fract_x
    _atom_site_fract_y
    _atom_site_fract_z
    _atom_site_occupancy
    Mo1     Mo   0.34872   0.35221   0.36094   1.000
    Mo2     Mo   0.31047   0.31503   0.32773   1.000
    Mo3     Mo   0.63628   0.36069   0.35046   1.000
    Mo4     Mo   0.67048   0.32548   0.31461   1.000
    Mo5     Mo   0.50856   0.21356   0.50032   1.000
    Mo6     Mo   0.51105   0.14256   0.50040   1.000
    Mo7     Mo   0.33908   0.63851   0.36084   1.000
    Mo8     Mo   0.29870   0.67314   0.32755   1.000
    Mo9     Mo   0.62668   0.64673   0.34984   1.000
    Mo10    Mo   0.65891   0.68370   0.31398   1.000
    Mo11    Mo   0.78677   0.50857   0.48901   1.000
    Mo12    Mo   0.85807   0.51152   0.48642   1.000
    O1_1    O    0.40826   0.34487   0.33483   1.000
    O2_1    O    0.36826   0.30601   0.29935   1.000
    O3_1    O    0.57284   0.34969   0.32891   1.000
    O4_1    O    0.60898   0.31233   0.29089   1.000
    C1_1    C    0.40530   0.32240   0.30938   1.000
    C2_1    C    0.48910   0.32570   0.30465   1.000
    H2_1    H    0.49036   0.33991   0.32470   1.000
    C3_1    C    0.44780   0.31380   0.29125   1.000
    C4_1    C    0.44540   0.29390   0.26157   1.000
    H4_1    H    0.41681   0.28589   0.25275   1.000
    C5_1    C    0.48490   0.28570   0.24488   1.000
    C6_1    C    0.52570   0.29600   0.25892   1.000
    H6_1    H    0.55291   0.28890   0.24821   1.000
    C7_1    C    0.52840   0.31660   0.28841   1.000
    C8_1    C    0.57240   0.32670   0.30299   1.000
    C9_1    C    0.48280   0.26610   0.21169   1.000
    C10_1   C    0.52700   0.26750   0.19340   1.000
    H10A_1  H    0.52072   0.26235   0.17099   1.000
    H10B_1  H    0.54742   0.24403   0.20136   1.000
    H10C_1  H    0.54128   0.29698   0.19619   1.000
    C11_1   C    0.46780   0.21720   0.21550   1.000
    H11A_1  H    0.45789   0.20536   0.19506   1.000
    H11B_1  H    0.44273   0.21572   0.23046   1.000
    H11C_1  H    0.49329   0.19931   0.22352   1.000
    C12_1   C    0.44740   0.29060   0.19150   1.000
    H12A_1  H    0.44255   0.27406   0.17174   1.000
    H12B_1  H    0.45820   0.32099   0.18671   1.000
    H12C_1  H    0.41883   0.29246   0.20298   1.000
    O1_2    O    0.36625   0.29318   0.38583   1.000
    O2_2    O    0.32548   0.25414   0.35104   1.000
    O3_2    O    0.45621   0.21413   0.46639   1.000
    O4_2    O    0.45845   0.13939   0.46629   1.000
    C1_2    C    0.35100   0.25610   0.37520   1.000
    C2_2    C    0.39490   0.21530   0.41590   1.000
    H2_2    H    0.40819   0.24309   0.42209   1.000
    C3_2    C    0.36370   0.21450   0.39231   1.000
    C4_2    C    0.34330   0.17410   0.38360   1.000
    H4_2    H    0.32116   0.17389   0.36722   1.000
    C5_2    C    0.35510   0.13390   0.39860   1.000
    C6_2    C    0.38790   0.13520   0.42180   1.000
    H6_2    H    0.39722   0.10801   0.43160   1.000
    C7_2    C    0.40770   0.17580   0.43114   1.000
    C8_2    C    0.44290   0.17640   0.45571   1.000
    C9_2    C    0.33180   0.08750   0.39130   1.000
    C10_2   C    0.31940   0.06160   0.42134   1.000
    H10A_2  H    0.29197   0.04387   0.41750   1.000
    H10B_2  H    0.31410   0.08289   0.43854   1.000
    H10C_2  H    0.34442   0.04144   0.42717   1.000
    C11_2   C    0.36480   0.05700   0.37350   1.000
    H11A_2  H    0.36607   0.02753   0.38376   1.000
    H11B_2  H    0.39507   0.07062   0.37381   1.000
    H11C_2  H    0.35447   0.05349   0.35165   1.000
    C12_2   C    0.28710   0.09450   0.37350   1.000
    H12A_2  H    0.26976   0.06637   0.37344   1.000
    H12B_2  H    0.29332   0.10346   0.35172   1.000
    H12C_2  H    0.26947   0.11806   0.38388   1.000
    O1_3    O    0.33330   0.41298   0.33804   1.000
    O2_3    O    0.29430   0.37419   0.30259   1.000
    O3_3    O    0.32804   0.57668   0.33752   1.000
    O4_3    O    0.28656   0.61339   0.30231   1.000
    C1_3    C    0.30830   0.41150   0.31337   1.000
    C2_3    C    0.30520   0.49440   0.31220   1.000
    H2_3    H    0.31697   0.49494   0.33312   1.000
    C3_3    C    0.29780   0.45410   0.29720   1.000
    C4_3    C    0.28160   0.45330   0.26700   1.000
    H4_3    H    0.27727   0.42505   0.25694   1.000
    C5_3    C    0.27050   0.49430   0.24980   1.000
    C6_3    C    0.27870   0.53440   0.26610   1.000
    H6_3    H    0.27281   0.56222   0.25598   1.000
    C7_3    C    0.29530   0.53440   0.29680   1.000
    C8_3    C    0.30410   0.57700   0.31350   1.000
    C9_3    C    0.25470   0.48780   0.21470   1.000
    C10_3   C    0.21170   0.45890   0.21580   1.000
    H10A_3  H    0.19644   0.45971   0.19523   1.000
    H10B_3  H    0.19130   0.47080   0.23195   1.000
    H10C_3  H    0.21979   0.42784   0.22104   1.000
    C11_3   C    0.29010   0.45840   0.19750   1.000
    H11A_3  H    0.27912   0.45156   0.17616   1.000
    H11B_3  H    0.29468   0.43030   0.20917   1.000
    H11C_3  H    0.31886   0.47470   0.19626   1.000
    C12_3   C    0.25900   0.53440   0.19970   1.000
    H12A_3  H    0.25716   0.53154   0.17667   1.000
    H12B_3  H    0.28815   0.54771   0.20565   1.000
    H12C_3  H    0.23434   0.55365   0.20705   1.000
    O1_4    O    0.64394   0.42173   0.32648   1.000
    O2_4    O    0.67918   0.38454   0.28816   1.000
    O3_4    O    0.63889   0.58577   0.32606   1.000
    O4_4    O    0.67236   0.62467   0.28789   1.000
    C1_4    C    0.66490   0.42100   0.30006   1.000
    C2_4    C    0.66200   0.50400   0.29836   1.000
    H2_4    H    0.64951   0.50360   0.31894   1.000
    C3_4    C    0.67220   0.46460   0.28338   1.000
    C4_4    C    0.68890   0.46450   0.25336   1.000
    H4_4    H    0.69475   0.43680   0.24305   1.000
    C5_4    C    0.69710   0.50450   0.23800   1.000
    C6_4    C    0.68640   0.54460   0.25330   1.000
    H6_4    H    0.69070   0.57234   0.24262   1.000
    C7_4    C    0.67000   0.54450   0.28318   1.000
    C8_4    C    0.65990   0.58760   0.30003   1.000
    C9_4    C    0.71930   0.50430   0.20460   1.000
    C10_4   C    0.70350   0.54600   0.18630   1.000
    H10A_4  H    0.71890   0.54706   0.16587   1.000
    H10B_4  H    0.71096   0.57311   0.19837   1.000
    H10C_4  H    0.67072   0.54448   0.18279   1.000
    C11_4   C    0.70910   0.46160   0.18570   1.000
    H11A_4  H    0.72932   0.46009   0.16750   1.000
    H11B_4  H    0.67757   0.46222   0.17832   1.000
    H11C_4  H    0.71394   0.43519   0.19909   1.000
    C12_4   C    0.77140   0.50740   0.20610   1.000
    H12A_4  H    0.78393   0.49786   0.18583   1.000
    H12B_4  H    0.78287   0.48779   0.22288   1.000
    H12C_4  H    0.78037   0.53850   0.21040   1.000
    O1_5    O    0.69732   0.37428   0.37431   1.000
    O2_5    O    0.73358   0.33699   0.33663   1.000
    O3_5    O    0.78375   0.45888   0.45349   1.000
    O4_5    O    0.85906   0.46138   0.45106   1.000
    C1_5    C    0.73430   0.36010   0.36232   1.000
    C2_5    C    0.77890   0.40090   0.40266   1.000
    H2_5    H    0.75164   0.41386   0.41013   1.000
    C3_5    C    0.77760   0.37060   0.37817   1.000
    C4_5    C    0.81660   0.34910   0.36850   1.000
    H4_5    H    0.81449   0.32743   0.35210   1.000
    C5_5    C    0.85890   0.35800   0.38190   1.000
    C6_5    C    0.85910   0.39090   0.40630   1.000
    H6_5    H    0.88708   0.39854   0.41614   1.000
    C7_5    C    0.81960   0.41240   0.41636   1.000
    C8_5    C    0.82140   0.44580   0.44160   1.000
    C9_5    C    0.89830   0.32230   0.37506   1.000
    C10_5   C    0.91300   0.34250   0.34340   1.000
    H10A_5  H    0.92815   0.31938   0.33090   1.000
    H10B_5  H    0.93394   0.36750   0.34731   1.000
    H10C_5  H    0.88630   0.35351   0.33195   1.000
    C11_5   C    0.93210   0.31870   0.40260   1.000
    H11A_5  H    0.93248   0.28775   0.41057   1.000
    H11B_5  H    0.92304   0.33914   0.41953   1.000
    H11C_5  H    0.96246   0.32682   0.39534   1.000
    C12_5   C    0.88560   0.27300   0.36730   1.000
    H12A_5  H    0.90805   0.25275   0.37681   1.000
    H12B_5  H    0.88518   0.26879   0.34438   1.000
    H12C_5  H    0.85560   0.26627   0.37577   1.000
    O1_6    O    0.68764   0.63772   0.37446   1.000
    O2_6    O    0.72231   0.67636   0.33664   1.000
    O3_6    O    0.77936   0.55869   0.45456   1.000
    O4_6    O    0.85474   0.56208   0.45166   1.000
    C1_6    C    0.72330   0.65490   0.36251   1.000
    C2_6    C    0.76980   0.61760   0.40349   1.000
    H2_6    H    0.74365   0.60176   0.41014   1.000
    C3_6    C    0.76700   0.64840   0.37922   1.000
    C4_6    C    0.80420   0.67450   0.37120   1.000
    H4_6    H    0.80133   0.69636   0.35495   1.000
    C5_6    C    0.84590   0.66910   0.38670   1.000
    C6_6    C    0.84820   0.63530   0.40930   1.000
    H6_6    H    0.87653   0.62936   0.41917   1.000
    C7_6    C    0.81130   0.61010   0.41802   1.000
    C8_6    C    0.81550   0.57460   0.44315   1.000
    C9_6    C    0.88830   0.69130   0.37381   1.000
    C10_6   C    0.90570   0.66680   0.34400   1.000
    H10A_6  H    0.91926   0.68876   0.32969   1.000
    H10B_6  H    0.88035   0.65173   0.33340   1.000
    H10C_6  H    0.92854   0.64450   0.35020   1.000
    C11_6   C    0.92820   0.69090   0.39690   1.000
    H11A_6  H    0.95473   0.70429   0.38691   1.000
    H11B_6  H    0.93502   0.65985   0.40305   1.000
    H11C_6  H    0.92034   0.70832   0.41574   1.000
    C12_6   C    0.87780   0.73930   0.36280   1.000
    H12A_6  H    0.90609   0.75458   0.35731   1.000
    H12B_6  H    0.86278   0.75580   0.37973   1.000
    H12C_6  H    0.85785   0.73824   0.34421   1.000
    O1_7    O    0.29215   0.36181   0.38991   1.000
    O2_7    O    0.25120   0.32143   0.35531   1.000
    O3_7    O    0.21474   0.44203   0.47566   1.000
    O4_7    O    0.13918   0.43843   0.47850   1.000
    C1_7    C    0.25500   0.34430   0.38032   1.000
    C2_7    C    0.21540   0.38310   0.42446   1.000
    H2_7    H    0.24279   0.39800   0.42996   1.000
    C3_7    C    0.21400   0.35230   0.40002   1.000
    C4_7    C    0.17420   0.32990   0.39250   1.000
    H4_7    H    0.17364   0.30983   0.37509   1.000
    C5_7    C    0.13460   0.33640   0.41020   1.000
    C6_7    C    0.13680   0.36850   0.43420   1.000
    H6_7    H    0.11054   0.37457   0.44632   1.000
    C7_7    C    0.17620   0.39160   0.44055   1.000
    C8_7    C    0.17690   0.42530   0.46680   1.000
    C9_7    C    0.09080   0.31250   0.39898   1.000
    C10_7   C    0.06940   0.33440   0.36960   1.000
    H10A_7  H    0.03630   0.33325   0.37116   1.000
    H10B_7  H    0.07896   0.31813   0.35068   1.000
    H10C_7  H    0.07921   0.36580   0.36817   1.000
    C11_7   C    0.05610   0.31360   0.42560   1.000
    H11A_7  H    0.02752   0.30044   0.41812   1.000
    H11B_7  H    0.05088   0.34487   0.43197   1.000
    H11C_7  H    0.06756   0.29641   0.44362   1.000
    C12_7   C    0.09940   0.26340   0.38930   1.000
    H12A_7  H    0.07039   0.24874   0.38457   1.000
    H12B_7  H    0.11472   0.24754   0.40652   1.000
    H12C_7  H    0.11844   0.26281   0.37046   1.000
    O1_8    O    0.62741   0.30220   0.37740   1.000
    O2_8    O    0.66417   0.26458   0.33998   1.000
    O3_8    O    0.55610   0.21725   0.46357   1.000
    O4_8    O    0.55945   0.14226   0.46358   1.000
    C1_8    C    0.64350   0.26600   0.36624   1.000
    C2_8    C    0.60960   0.22220   0.41059   1.000
    H2_8    H    0.59448   0.24872   0.41727   1.000
    C3_8    C    0.63840   0.22330   0.38452   1.000
    C4_8    C    0.66190   0.18550   0.37570   1.000
    H4_8    H    0.68134   0.18683   0.35799   1.000
    C5_8    C    0.65760   0.14490   0.39250   1.000
    C6_8    C    0.62810   0.14490   0.41720   1.000
    H6_8    H    0.62417   0.11779   0.42874   1.000
    C7_8    C    0.60360   0.18260   0.42626   1.000
    C8_8    C    0.57130   0.18050   0.45265   1.000
    C9_8    C    0.68340   0.10310   0.38080   1.000
    C10_8   C    0.66530   0.08930   0.34810   1.000
    H10A_8  H    0.68473   0.06584   0.33931   1.000
    H10B_8  H    0.66529   0.11553   0.33411   1.000
    H10C_8  H    0.63434   0.07784   0.35007   1.000
    C11_8   C    0.73300   0.11580   0.37600   1.000
    H11A_8  H    0.75081   0.08853   0.37214   1.000
    H11B_8  H    0.74459   0.13085   0.39499   1.000
    H11C_8  H    0.73552   0.13605   0.35792   1.000
    C12_8   C    0.67860   0.06220   0.40210   1.000
    H12A_8  H    0.69441   0.03656   0.39267   1.000
    H12B_8  H    0.64643   0.05482   0.40442   1.000
    H12C_8  H    0.69183   0.06882   0.42280   1.000
    O1_9    O    0.56073   0.21716   0.53436   1.000
    O2_9    O    0.56328   0.14227   0.53424   1.000
    O3_9    O    0.64764   0.30215   0.61392   1.000
    O4_9    O    0.69081   0.26519   0.64877   1.000
    C1_9    C    0.57720   0.18051   0.54464   1.000
    C2_9    C    0.62310   0.22250   0.58394   1.000
    H2_9    H    0.60803   0.24941   0.57781   1.000
    C3_9    C    0.61290   0.18190   0.56914   1.000
    C4_9    C    0.63570   0.14350   0.57808   1.000
    H4_9    H    0.62850   0.11611   0.56770   1.000
    C5_9    C    0.66790   0.14320   0.60110   1.000
    C6_9    C    0.67800   0.18380   0.61623   1.000
    H6_9    H    0.70045   0.18465   0.63242   1.000
    C7_9    C    0.65520   0.22300   0.60753   1.000
    C8_9    C    0.66490   0.26550   0.62409   1.000
    C9_9    C    0.68780   0.09790   0.61142   1.000
    C10_9   C    0.69960   0.06930   0.58254   1.000
    H10A_9  H    0.71235   0.04054   0.58951   1.000
    H10B_9  H    0.72193   0.08531   0.56973   1.000
    H10C_9  H    0.67220   0.06392   0.56995   1.000
    C11_9   C    0.65590   0.06790   0.63110   1.000
    H11A_9  H    0.66813   0.03730   0.63201   1.000
    H11B_9  H    0.62581   0.06737   0.62123   1.000
    H11C_9  H    0.65369   0.08007   0.65249   1.000
    C12_9   C    0.73070   0.10480   0.63100   1.000
    H12A_9  H    0.74417   0.07554   0.63603   1.000
    H12B_9  H    0.72315   0.12048   0.65061   1.000
    H12C_9  H    0.75232   0.12284   0.61902   1.000
    O1_10   O    0.39841   0.64998   0.33480   1.000
    O2_10   O    0.35613   0.68597   0.29926   1.000
    O3_10   O    0.56301   0.65394   0.32836   1.000
    O4_10   O    0.59651   0.69235   0.28969   1.000
    C1_10   C    0.39450   0.67180   0.30957   1.000
    C2_10   C    0.47760   0.67320   0.30414   1.000
    H2_10   H    0.47972   0.66001   0.32451   1.000
    C3_10   C    0.43570   0.68160   0.29073   1.000
    C4_10   C    0.43240   0.70050   0.26085   1.000
    H4_10   H    0.40333   0.70658   0.25203   1.000
    C5_10   C    0.47080   0.71070   0.24376   1.000
    C6_10   C    0.51330   0.70320   0.25791   1.000
    H6_10   H    0.54003   0.71141   0.24703   1.000
    C7_10   C    0.51660   0.68400   0.28767   1.000
    C8_10   C    0.56120   0.67650   0.30250   1.000
    C9_10   C    0.46670   0.72940   0.21103   1.000
    C10_10  C    0.43550   0.69970   0.19110   1.000
    H10A_10 H    0.42946   0.71436   0.17080   1.000
    H10B_10 H    0.40688   0.69512   0.20220   1.000
    H10C_10 H    0.45009   0.67060   0.18751   1.000
    C11_10  C    0.44810   0.77740   0.21340   1.000
    H11A_10 H    0.44267   0.78929   0.19213   1.000
    H11B_10 H    0.47014   0.79646   0.22442   1.000
    H11C_10 H    0.41961   0.77704   0.22505   1.000
    C12_10  C    0.51190   0.73260   0.19380   1.000
    H12A_10 H    0.50694   0.74559   0.17277   1.000
    H12B_10 H    0.52503   0.70251   0.19164   1.000
    H12C_10 H    0.53280   0.75181   0.20579   1.000
    O1_11   O    0.28270   0.62445   0.38936   1.000
    O2_11   O    0.23985   0.66112   0.35446   1.000
    O3_11   O    0.21084   0.54083   0.47546   1.000
    O4_11   O    0.13566   0.53845   0.47837   1.000
    C1_11   C    0.24460   0.63820   0.37921   1.000
    C2_11   C    0.20730   0.59820   0.42347   1.000
    H2_11   H    0.23614   0.58690   0.42971   1.000
    C3_11   C    0.20330   0.62660   0.39839   1.000
    C4_11   C    0.16160   0.64410   0.38939   1.000
    H4_11   H    0.15954   0.66357   0.37167   1.000
    C5_11   C    0.12310   0.63340   0.40610   1.000
    C6_11   C    0.12700   0.60350   0.43133   1.000
    H6_11   H    0.10065   0.59517   0.44268   1.000
    C7_11   C    0.16810   0.58600   0.43996   1.000
    C8_11   C    0.17152   0.55330   0.46630   1.000
    C9_11   C    0.07530   0.65030   0.39717   1.000
    C10_11  C    0.07530   0.67800   0.36690   1.000
    H10A_11 H    0.04440   0.67978   0.35834   1.000
    H10B_11 H    0.09505   0.66365   0.35139   1.000
    H10C_11 H    0.08643   0.70837   0.37144   1.000
    C11_11  C    0.05620   0.67720   0.42490   1.000
    H11A_11 H    0.02792   0.69192   0.41833   1.000
    H11B_11 H    0.07821   0.70002   0.43151   1.000
    H11C_11 H    0.05013   0.65685   0.44252   1.000
    C12_11  C    0.04370   0.60990   0.39250   1.000
    H12A_11 H    0.01327   0.61763   0.39988   1.000
    H12B_11 H    0.05529   0.58424   0.40454   1.000
    H12C_11 H    0.04222   0.60211   0.37006   1.000
    O1_12   O    0.61402   0.70550   0.37625   1.000
    O2_12   O    0.64831   0.74415   0.33856   1.000
    O3_12   O    0.53868   0.78521   0.46274   1.000
    O4_12   O    0.53728   0.86042   0.46279   1.000
    C1_12   C    0.62790   0.74170   0.36501   1.000
    C2_12   C    0.59160   0.78370   0.40912   1.000
    H2_12   H    0.57718   0.75660   0.41524   1.000
    C3_12   C    0.62060   0.78420   0.38366   1.000
    C4_12   C    0.64360   0.82300   0.37610   1.000
    H4_12   H    0.66321   0.82277   0.35843   1.000
    C5_12   C    0.63890   0.86230   0.39330   1.000
    C6_12   C    0.60720   0.86210   0.41790   1.000
    H6_12   H    0.60154   0.88879   0.42950   1.000
    C7_12   C    0.58400   0.82260   0.42539   1.000
    C8_12   C    0.55150   0.82340   0.45198   1.000
    C9_12   C    0.66650   0.90490   0.38365   1.000
    C10_12  C    0.71600   0.89040   0.37810   1.000
    H10A_12 H    0.73381   0.91646   0.37147   1.000
    H10B_12 H    0.71681   0.86734   0.36156   1.000
    H10C_12 H    0.72880   0.87808   0.39765   1.000
    C11_12  C    0.64890   0.91830   0.35070   1.000
    H11A_12 H    0.67079   0.93827   0.34059   1.000
    H11B_12 H    0.61979   0.93387   0.35269   1.000
    H11C_12 H    0.64477   0.89123   0.33777   1.000
    C12_12  C    0.66880   0.93700   0.41180   1.000
    H12A_12 H    0.67983   0.96642   0.40477   1.000
    H12B_12 H    0.68945   0.92487   0.42784   1.000
    H12C_12 H    0.63849   0.94044   0.42077   1.000
    Mo1     Mo   0.65128   0.64779   0.63906   1.000
    Mo2     Mo   0.68953   0.68497   0.67227   1.000
    Mo3     Mo   0.36372   0.63931   0.64954   1.000
    Mo4     Mo   0.32952   0.67452   0.68539   1.000
    Mo5     Mo   0.49144   0.78644   0.49968   1.000
    Mo6     Mo   0.48895   0.85744   0.49960   1.000
    Mo7     Mo   0.66092   0.36149   0.63916   1.000
    Mo8     Mo   0.70130   0.32686   0.67245   1.000
    Mo9     Mo   0.37332   0.35327   0.65016   1.000
    Mo10    Mo   0.34109   0.31630   0.68602   1.000
    Mo11    Mo   0.21323   0.49143   0.51099   1.000
    Mo12    Mo   0.14193   0.48848   0.51358   1.000
    O1_1    O    0.59174   0.65513   0.66517   1.000
    O2_1    O    0.63174   0.69399   0.70065   1.000
    O3_1    O    0.42716   0.65031   0.67109   1.000
    O4_1    O    0.39102   0.68767   0.70911   1.000
    C1_1    C    0.59470   0.67760   0.69062   1.000
    C2_1    C    0.51090   0.67430   0.69535   1.000
    H2_1    H    0.50964   0.66009   0.67530   1.000
    C3_1    C    0.55220   0.68620   0.70875   1.000
    C4_1    C    0.55460   0.70610   0.73843   1.000
    H4_1    H    0.58319   0.71411   0.74725   1.000
    C5_1    C    0.51510   0.71430   0.75512   1.000
    C6_1    C    0.47430   0.70400   0.74108   1.000
    H6_1    H    0.44709   0.71110   0.75179   1.000
    C7_1    C    0.47160   0.68340   0.71159   1.000
    C8_1    C    0.42760   0.67330   0.69701   1.000
    C9_1    C    0.51720   0.73390   0.78831   1.000
    C10_1   C    0.47300   0.73250   0.80660   1.000
    H10A_1  H    0.47929   0.73765   0.82901   1.000
    H10B_1  H    0.45258   0.75597   0.79864   1.000
    H10C_1  H    0.45873   0.70302   0.80381   1.000
    C11_1   C    0.53220   0.78280   0.78450   1.000
    H11A_1  H    0.54211   0.79464   0.80494   1.000
    H11B_1  H    0.55727   0.78428   0.76954   1.000
    H11C_1  H    0.50671   0.80069   0.77648   1.000
    C12_1   C    0.55260   0.70940   0.80850   1.000
    H12A_1  H    0.55745   0.72594   0.82826   1.000
    H12B_1  H    0.54180   0.67901   0.81329   1.000
    H12C_1  H    0.58117   0.70754   0.79702   1.000
    O1_2    O    0.63375   0.70682   0.61417   1.000
    O2_2    O    0.67452   0.74586   0.64896   1.000
    O3_2    O    0.54379   0.78587   0.53361   1.000
    O4_2    O    0.54155   0.86061   0.53371   1.000
    C1_2    C    0.64900   0.74390   0.62480   1.000
    C2_2    C    0.60510   0.78470   0.58410   1.000
    H2_2    H    0.59181   0.75691   0.57791   1.000
    C3_2    C    0.63630   0.78550   0.60769   1.000
    C4_2    C    0.65670   0.82590   0.61640   1.000
    H4_2    H    0.67884   0.82611   0.63278   1.000
    C5_2    C    0.64490   0.86610   0.60140   1.000
    C6_2    C    0.61210   0.86480   0.57820   1.000
    H6_2    H    0.60278   0.89199   0.56840   1.000
    C7_2    C    0.59230   0.82420   0.56886   1.000
    C8_2    C    0.55710   0.82360   0.54429   1.000
    C9_2    C    0.66820   0.91250   0.60870   1.000
    C10_2   C    0.68060   0.93840   0.57866   1.000
    H10A_2  H    0.70803   0.95613   0.58250   1.000
    H10B_2  H    0.68590   0.91711   0.56146   1.000
    H10C_2  H    0.65559   0.95856   0.57283   1.000
    C11_2   C    0.63520   0.94300   0.62650   1.000
    H11A_2  H    0.63393   0.97247   0.61624   1.000
    H11B_2  H    0.60493   0.92938   0.62619   1.000
    H11C_2  H    0.64553   0.94651   0.64835   1.000
    C12_2   C    0.71290   0.90550   0.62650   1.000
    H12A_2  H    0.73024   0.93363   0.62656   1.000
    H12B_2  H    0.70668   0.89654   0.64828   1.000
    H12C_2  H    0.73053   0.88194   0.61612   1.000
    O1_3    O    0.66670   0.58702   0.66196   1.000
    O2_3    O    0.70570   0.62581   0.69741   1.000
    O3_3    O    0.67196   0.42332   0.66248   1.000
    O4_3    O    0.71344   0.38661   0.69769   1.000
    C1_3    C    0.69170   0.58850   0.68663   1.000
    C2_3    C    0.69480   0.50560   0.68780   1.000
    H2_3    H    0.68303   0.50506   0.66688   1.000
    C3_3    C    0.70220   0.54590   0.70280   1.000
    C4_3    C    0.71840   0.54670   0.73300   1.000
    H4_3    H    0.72273   0.57495   0.74306   1.000
    C5_3    C    0.72950   0.50570   0.75020   1.000
    C6_3    C    0.72130   0.46560   0.73390   1.000
    H6_3    H    0.72719   0.43778   0.74402   1.000
    C7_3    C    0.70470   0.46560   0.70320   1.000
    C8_3    C    0.69590   0.42300   0.68650   1.000
    C9_3    C    0.74530   0.51220   0.78530   1.000
    C10_3   C    0.78830   0.54110   0.78420   1.000
    H10A_3  H    0.80356   0.54029   0.80477   1.000
    H10B_3  H    0.80870   0.52920   0.76806   1.000
    H10C_3  H    0.78021   0.57216   0.77896   1.000
    C11_3   C    0.70990   0.54160   0.80250   1.000
    H11A_3  H    0.72088   0.54844   0.82384   1.000
    H11B_3  H    0.70532   0.56970   0.79083   1.000
    H11C_3  H    0.68114   0.52530   0.80374   1.000
    C12_3   C    0.74100   0.46560   0.80030   1.000
    H12A_3  H    0.74285   0.46846   0.82333   1.000
    H12B_3  H    0.71185   0.45229   0.79436   1.000
    H12C_3  H    0.76566   0.44635   0.79295   1.000
    O1_4    O    0.35606   0.57827   0.67352   1.000
    O2_4    O    0.32082   0.61546   0.71184   1.000
    O3_4    O    0.36111   0.41423   0.67394   1.000
    O4_4    O    0.32764   0.37533   0.71211   1.000
    C1_4    C    0.33510   0.57900   0.69994   1.000
    C2_4    C    0.33800   0.49600   0.70164   1.000
    H2_4    H    0.35049   0.49640   0.68106   1.000
    C3_4    C    0.32780   0.53540   0.71662   1.000
    C4_4    C    0.31110   0.53550   0.74664   1.000
    H4_4    H    0.30525   0.56320   0.75695   1.000
    C5_4    C    0.30290   0.49550   0.76200   1.000
    C6_4    C    0.31360   0.45540   0.74670   1.000
    H6_4    H    0.30930   0.42767   0.75738   1.000
    C7_4    C    0.33000   0.45550   0.71682   1.000
    C8_4    C    0.34010   0.41240   0.69997   1.000
    C9_4    C    0.28070   0.49570   0.79540   1.000
    C10_4   C    0.29650   0.45400   0.81370   1.000
    H10A_4  H    0.28110   0.45294   0.83413   1.000
    H10B_4  H    0.28904   0.42689   0.80163   1.000
    H10C_4  H    0.32928   0.45552   0.81721   1.000
    C11_4   C    0.29090   0.53840   0.81430   1.000
    H11A_4  H    0.27068   0.53991   0.83250   1.000
    H11B_4  H    0.32243   0.53778   0.82168   1.000
    H11C_4  H    0.28606   0.56481   0.80091   1.000
    C12_4   C    0.22860   0.49260   0.79390   1.000
    H12A_4  H    0.21607   0.50214   0.81417   1.000
    H12B_4  H    0.21713   0.51221   0.77712   1.000
    H12C_4  H    0.21964   0.46150   0.78960   1.000
    O1_5    O    0.30268   0.62572   0.62569   1.000
    O2_5    O    0.26642   0.66301   0.66337   1.000
    O3_5    O    0.21625   0.54112   0.54651   1.000
    O4_5    O    0.14094   0.53862   0.54894   1.000
    C1_5    C    0.26570   0.63990   0.63768   1.000
    C2_5    C    0.22110   0.59910   0.59734   1.000
    H2_5    H    0.24836   0.58614   0.58987   1.000
    C3_5    C    0.22240   0.62940   0.62183   1.000
    C4_5    C    0.18340   0.65090   0.63150   1.000
    H4_5    H    0.18551   0.67257   0.64790   1.000
    C5_5    C    0.14110   0.64200   0.61810   1.000
    C6_5    C    0.14090   0.60910   0.59370   1.000
    H6_5    H    0.11292   0.60146   0.58386   1.000
    C7_5    C    0.18040   0.58760   0.58364   1.000
    C8_5    C    0.17860   0.55420   0.55840   1.000
    C9_5    C    0.10170   0.67770   0.62494   1.000
    C10_5   C    0.08700   0.65750   0.65660   1.000
    H10A_5  H    0.07185   0.68062   0.66910   1.000
    H10B_5  H    0.06606   0.63250   0.65269   1.000
    H10C_5  H    0.11370   0.64649   0.66805   1.000
    C11_5   C    0.06790   0.68130   0.59740   1.000
    H11A_5  H    0.06752   0.71225   0.58943   1.000
    H11B_5  H    0.07696   0.66086   0.58047   1.000
    H11C_5  H    0.03754   0.67318   0.60466   1.000
    C12_5   C    0.11440   0.72700   0.63270   1.000
    H12A_5  H    0.09195   0.74725   0.62319   1.000
    H12B_5  H    0.11482   0.73121   0.65563   1.000
    H12C_5  H    0.14440   0.73373   0.62423   1.000
    O1_6    O    0.31236   0.36228   0.62554   1.000
    O2_6    O    0.27769   0.32364   0.66336   1.000
    O3_6    O    0.22064   0.44131   0.54544   1.000
    O4_6    O    0.14526   0.43792   0.54834   1.000
    C1_6    C    0.27670   0.34510   0.63749   1.000
    C2_6    C    0.23020   0.38240   0.59651   1.000
    H2_6    H    0.25635   0.39824   0.58986   1.000
    C3_6    C    0.23300   0.35160   0.62078   1.000
    C4_6    C    0.19580   0.32550   0.62880   1.000
    H4_6    H    0.19867   0.30364   0.64505   1.000
    C5_6    C    0.15410   0.33090   0.61330   1.000
    C6_6    C    0.15180   0.36470   0.59070   1.000
    H6_6    H    0.12347   0.37064   0.58083   1.000
    C7_6    C    0.18870   0.38990   0.58198   1.000
    C8_6    C    0.18450   0.42540   0.55685   1.000
    C9_6    C    0.11170   0.30870   0.62619   1.000
    C10_6   C    0.09430   0.33320   0.65600   1.000
    H10A_6  H    0.08074   0.31124   0.67031   1.000
    H10B_6  H    0.11965   0.34828   0.66660   1.000
    H10C_6  H    0.07146   0.35550   0.64980   1.000
    C11_6   C    0.07180   0.30910   0.60310   1.000
    H11A_6  H    0.04528   0.29571   0.61309   1.000
    H11B_6  H    0.06498   0.34015   0.59696   1.000
    H11C_6  H    0.07966   0.29168   0.58426   1.000
    C12_6   C    0.12220   0.26070   0.63720   1.000
    H12A_6  H    0.09391   0.24542   0.64269   1.000
    H12B_6  H    0.13722   0.24420   0.62027   1.000
    H12C_6  H    0.14216   0.26176   0.65580   1.000
    O1_7    O    0.70785   0.63819   0.61009   1.000
    O2_7    O    0.74880   0.67857   0.64469   1.000
    O3_7    O    0.78526   0.55797   0.52434   1.000
    O4_7    O    0.86082   0.56157   0.52150   1.000
    C1_7    C    0.74500   0.65570   0.61968   1.000
    C2_7    C    0.78460   0.61690   0.57554   1.000
    H2_7    H    0.75721   0.60200   0.57004   1.000
    C3_7    C    0.78600   0.64770   0.59998   1.000
    C4_7    C    0.82580   0.67010   0.60750   1.000
    H4_7    H    0.82636   0.69017   0.62491   1.000
    C5_7    C    0.86540   0.66360   0.58980   1.000
    C6_7    C    0.86320   0.63150   0.56580   1.000
    H6_7    H    0.88946   0.62543   0.55368   1.000
    C7_7    C    0.82380   0.60840   0.55945   1.000
    C8_7    C    0.82310   0.57470   0.53320   1.000
    C9_7    C    0.90920   0.68750   0.60102   1.000
    C10_7   C    0.93060   0.66560   0.63040   1.000
    H10A_7  H    0.96370   0.66675   0.62885   1.000
    H10B_7  H    0.92104   0.68187   0.64932   1.000
    H10C_7  H    0.92079   0.63421   0.63184   1.000
    C11_7   C    0.94390   0.68640   0.57440   1.000
    H11A_7  H    0.97249   0.69956   0.58188   1.000
    H11B_7  H    0.94912   0.65513   0.56803   1.000
    H11C_7  H    0.93245   0.70359   0.55638   1.000
    C12_7   C    0.90060   0.73660   0.61070   1.000
    H12A_7  H    0.92961   0.75126   0.61543   1.000
    H12B_7  H    0.88528   0.75247   0.59348   1.000
    H12C_7  H    0.88156   0.73719   0.62954   1.000
    O1_8    O    0.37259   0.69780   0.62260   1.000
    O2_8    O    0.33583   0.73542   0.66002   1.000
    O3_8    O    0.44390   0.78275   0.53643   1.000
    O4_8    O    0.44055   0.85774   0.53642   1.000
    C1_8    C    0.35650   0.73400   0.63376   1.000
    C2_8    C    0.39040   0.77780   0.58941   1.000
    H2_8    H    0.40552   0.75128   0.58273   1.000
    C3_8    C    0.36160   0.77670   0.61548   1.000
    C4_8    C    0.33810   0.81450   0.62430   1.000
    H4_8    H    0.31866   0.81317   0.64201   1.000
    C5_8    C    0.34240   0.85510   0.60750   1.000
    C6_8    C    0.37190   0.85510   0.58280   1.000
    H6_8    H    0.37583   0.88221   0.57126   1.000
    C7_8    C    0.39640   0.81740   0.57374   1.000
    C8_8    C    0.42870   0.81950   0.54735   1.000
    C9_8    C    0.31660   0.89690   0.61920   1.000
    C10_8   C    0.33470   0.91070   0.65190   1.000
    H10A_8  H    0.31527   0.93416   0.66069   1.000
    H10B_8  H    0.33471   0.88447   0.66589   1.000
    H10C_8  H    0.36566   0.92216   0.64993   1.000
    C11_8   C    0.26700   0.88420   0.62400   1.000
    H11A_8  H    0.24919   0.91147   0.62786   1.000
    H11B_8  H    0.25541   0.86915   0.60501   1.000
    H11C_8  H    0.26448   0.86395   0.64208   1.000
    C12_8   C    0.32140   0.93780   0.59790   1.000
    H12A_8  H    0.30559   0.96344   0.60733   1.000
    H12B_8  H    0.35357   0.94518   0.59558   1.000
    H12C_8  H    0.30817   0.93118   0.57720   1.000
    O1_9    O    0.43927   0.78284   0.46564   1.000
    O2_9    O    0.43672   0.85773   0.46576   1.000
    O3_9    O    0.35236   0.69785   0.38608   1.000
    O4_9    O    0.30919   0.73481   0.35123   1.000
    C1_9    C    0.42280   0.81949   0.45536   1.000
    C2_9    C    0.37690   0.77750   0.41606   1.000
    H2_9    H    0.39197   0.75059   0.42219   1.000
    C3_9    C    0.38710   0.81810   0.43086   1.000
    C4_9    C    0.36430   0.85650   0.42192   1.000
    H4_9    H    0.37150   0.88389   0.43230   1.000
    C5_9    C    0.33210   0.85680   0.39890   1.000
    C6_9    C    0.32200   0.81620   0.38377   1.000
    H6_9    H    0.29955   0.81535   0.36758   1.000
    C7_9    C    0.34480   0.77700   0.39247   1.000
    C8_9    C    0.33510   0.73450   0.37591   1.000
    C9_9    C    0.31220   0.90210   0.38858   1.000
    C10_9   C    0.30040   0.93070   0.41746   1.000
    H10A_9  H    0.28765   0.95946   0.41049   1.000
    H10B_9  H    0.27807   0.91469   0.43027   1.000
    H10C_9  H    0.32780   0.93608   0.43005   1.000
    C11_9   C    0.34410   0.93210   0.36890   1.000
    H11A_9  H    0.33187   0.96269   0.36799   1.000
    H11B_9  H    0.37420   0.93263   0.37877   1.000
    H11C_9  H    0.34631   0.91993   0.34751   1.000
    C12_9   C    0.26930   0.89520   0.36900   1.000
    H12A_9  H    0.25583   0.92446   0.36397   1.000
    H12B_9  H    0.27685   0.87952   0.34939   1.000
    H12C_9  H    0.24768   0.87716   0.38098   1.000
    O1_10   O    0.60159   0.35002   0.66520   1.000
    O2_10   O    0.64387   0.31403   0.70074   1.000
    O3_10   O    0.43699   0.34606   0.67164   1.000
    O4_10   O    0.40349   0.30765   0.71031   1.000
    C1_10   C    0.60550   0.32820   0.69043   1.000
    C2_10   C    0.52240   0.32680   0.69586   1.000
    H2_10   H    0.52028   0.33999   0.67549   1.000
    C3_10   C    0.56430   0.31840   0.70927   1.000
    C4_10   C    0.56760   0.29950   0.73915   1.000
    H4_10   H    0.59667   0.29342   0.74797   1.000
    C5_10   C    0.52920   0.28930   0.75624   1.000
    C6_10   C    0.48670   0.29680   0.74209   1.000
    H6_10   H    0.45998   0.28859   0.75297   1.000
    C7_10   C    0.48340   0.31600   0.71233   1.000
    C8_10   C    0.43880   0.32350   0.69750   1.000
    C9_10   C    0.53330   0.27060   0.78897   1.000
    C10_10  C    0.56450   0.30030   0.80890   1.000
    H10A_10 H    0.57054   0.28564   0.82920   1.000
    H10B_10 H    0.59311   0.30488   0.79780   1.000
    H10C_10 H    0.54991   0.32940   0.81249   1.000
    C11_10  C    0.55190   0.22260   0.78660   1.000
    H11A_10 H    0.55733   0.21071   0.80787   1.000
    H11B_10 H    0.52986   0.20354   0.77558   1.000
    H11C_10 H    0.58039   0.22296   0.77495   1.000
    C12_10  C    0.48810   0.26740   0.80620   1.000
    H12A_10 H    0.49306   0.25442   0.82723   1.000
    H12B_10 H    0.47497   0.29749   0.80836   1.000
    H12C_10 H    0.46720   0.24819   0.79421   1.000
    O1_11   O    0.71730   0.37555   0.61064   1.000
    O2_11   O    0.76015   0.33888   0.64554   1.000
    O3_11   O    0.78916   0.45917   0.52454   1.000
    O4_11   O    0.86434   0.46155   0.52163   1.000
    C1_11   C    0.75540   0.36180   0.62079   1.000
    C2_11   C    0.79270   0.40180   0.57653   1.000
    H2_11   H    0.76386   0.41310   0.57029   1.000
    C3_11   C    0.79670   0.37340   0.60161   1.000
    C4_11   C    0.83840   0.35590   0.61061   1.000
    H4_11   H    0.84046   0.33643   0.62833   1.000
    C5_11   C    0.87690   0.36660   0.59390   1.000
    C6_11   C    0.87300   0.39650   0.56867   1.000
    H6_11   H    0.89935   0.40483   0.55732   1.000
    C7_11   C    0.83190   0.41400   0.56004   1.000
    C8_11   C    0.82848   0.44670   0.53370   1.000
    C9_11   C    0.92470   0.34970   0.60283   1.000
    C10_11  C    0.92470   0.32200   0.63310   1.000
    H10A_11 H    0.95560   0.32022   0.64167   1.000
    H10B_11 H    0.90495   0.33635   0.64861   1.000
    H10C_11 H    0.91357   0.29163   0.62856   1.000
    C11_11  C    0.94380   0.32280   0.57510   1.000
    H11A_11 H    0.97208   0.30808   0.58167   1.000
    H11B_11 H    0.92180   0.29998   0.56849   1.000
    H11C_11 H    0.94987   0.34315   0.55748   1.000
    C12_11  C    0.95630   0.39010   0.60750   1.000
    H12A_11 H    0.98673   0.38237   0.60012   1.000
    H12B_11 H    0.94471   0.41576   0.59546   1.000
    H12C_11 H    0.95778   0.39789   0.62994   1.000
    O1_12   O    0.38598   0.29450   0.62375   1.000
    O2_12   O    0.35169   0.25585   0.66144   1.000
    O3_12   O    0.46132   0.21479   0.53726   1.000
    O4_12   O    0.46272   0.13958   0.53721   1.000
    C1_12   C    0.37210   0.25830   0.63499   1.000
    C2_12   C    0.40840   0.21630   0.59088   1.000
    H2_12   H    0.42282   0.24340   0.58476   1.000
    C3_12   C    0.37940   0.21580   0.61634   1.000
    C4_12   C    0.35640   0.17700   0.62390   1.000
    H4_12   H    0.33679   0.17723   0.64157   1.000
    C5_12   C    0.36110   0.13770   0.60670   1.000
    C6_12   C    0.39280   0.13790   0.58210   1.000
    H6_12   H    0.39846   0.11121   0.57050   1.000
    C7_12   C    0.41600   0.17740   0.57461   1.000
    C8_12   C    0.44850   0.17660   0.54802   1.000
    C9_12   C    0.33350   0.09510   0.61635   1.000
    C10_12  C    0.28400   0.10960   0.62190   1.000
    H10A_12 H    0.26619   0.08354   0.62853   1.000
    H10B_12 H    0.28319   0.13266   0.63844   1.000
    H10C_12 H    0.27120   0.12192   0.60235   1.000
    C11_12  C    0.35110   0.08170   0.64930   1.000
    H11A_12 H    0.32921   0.06173   0.65941   1.000
    H11B_12 H    0.38021   0.06613   0.64731   1.000
    H11C_12 H    0.35523   0.10877   0.66223   1.000
    C12_12  C    0.33120   0.06300   0.58820   1.000
    H12A_12 H    0.32018   0.03358   0.59523   1.000
    H12B_12 H    0.31055   0.07513   0.57216   1.000
    H12C_12 H    0.36151   0.05956   0.57923   1.000
    Mo1     Mo   0.15128   0.85221   0.13906   1.000
    Mo1     Mo   0.84872   0.14779   0.86094   1.000
    C1_4    C    0.83510   0.92100   0.19994   1.000
    C1_4    C    0.16490   0.07900   0.80006   1.000
    C2_4    C    0.83800   0.00400   0.20164   1.000
    C2_4    C    0.16200   0.99600   0.79836   1.000
    Mo2     Mo   0.18953   0.81503   0.17227   1.000
    Mo2     Mo   0.81047   0.18497   0.82773   1.000
    Mo3     Mo   0.86372   0.86069   0.14954   1.000
    Mo3     Mo   0.13628   0.13931   0.85046   1.000
    Mo4     Mo   0.82952   0.82548   0.18539   1.000
    Mo4     Mo   0.17048   0.17452   0.81461   1.000
    Mo5     Mo   0.99144   0.71356   0.99968   1.000
    Mo5     Mo   0.00856   0.28644   0.00032   1.000
    Mo6     Mo   0.98895   0.64256   0.99960   1.000
    Mo6     Mo   0.01105   0.35744   0.00040   1.000
    Mo7     Mo   0.16092   0.13851   0.13916   1.000
    Mo7     Mo   0.83908   0.86149   0.86084   1.000
    Mo8     Mo   0.20130   0.17314   0.17245   1.000
    Mo8     Mo   0.79870   0.82686   0.82755   1.000
    Mo9     Mo   0.87332   0.14673   0.15016   1.000
    Mo9     Mo   0.12668   0.85327   0.84984   1.000
    Mo10    Mo   0.84109   0.18370   0.18602   1.000
    Mo10    Mo   0.15891   0.81630   0.81398   1.000
    Mo11    Mo   0.71323   0.00857   0.01099   1.000
    Mo11    Mo   0.28677   0.99143   0.98901   1.000
    Mo12    Mo   0.64193   0.01152   0.01358   1.000
    Mo12    Mo   0.35807   0.98848   0.98642   1.000
    O1_1    O    0.09174   0.84487   0.16517   1.000
    O1_1    O    0.90826   0.15513   0.83483   1.000
    O2_1    O    0.13174   0.80601   0.20065   1.000
    O2_1    O    0.86826   0.19399   0.79935   1.000
    O3_1    O    0.92716   0.84969   0.17109   1.000
    O3_1    O    0.07284   0.15031   0.82891   1.000
    O4_1    O    0.89102   0.81233   0.20911   1.000
    O4_1    O    0.10898   0.18767   0.79089   1.000
    C11_1   C    0.03220   0.71720   0.28450   1.000
    C11_1   C    0.96780   0.28280   0.71550   1.000
    C1_1    C    0.09470   0.82240   0.19062   1.000
    C1_1    C    0.90530   0.17760   0.80938   1.000
    C2_1    C    0.01090   0.82570   0.19535   1.000
    C2_1    C    0.98910   0.17430   0.80465   1.000
    H2_1    H    0.00964   0.83991   0.17530   1.000
    H2_1    H    0.99037   0.16009   0.82470   1.000
    C3_1    C    0.05220   0.81380   0.20875   1.000
    C3_1    C    0.94780   0.18620   0.79125   1.000
    C4_1    C    0.05460   0.79390   0.23843   1.000
    C4_1    C    0.94540   0.20610   0.76157   1.000
    H4_1    H    0.08319   0.78589   0.24725   1.000
    H4_1    H    0.91681   0.21411   0.75275   1.000
    C5_1    C    0.01510   0.78570   0.25512   1.000
    C5_1    C    0.98490   0.21430   0.74488   1.000
    C6_1    C    0.97430   0.79600   0.24108   1.000
    C6_1    C    0.02570   0.20400   0.75892   1.000
    H6_1    H    0.94709   0.78890   0.25179   1.000
    H6_1    H    0.05291   0.21110   0.74821   1.000
    C7_1    C    0.97160   0.81660   0.21159   1.000
    C7_1    C    0.02840   0.18340   0.78841   1.000
    C8_1    C    0.92760   0.82670   0.19701   1.000
    C8_1    C    0.07240   0.17330   0.80299   1.000
    C9_1    C    0.01720   0.76610   0.28831   1.000
    C9_1    C    0.98280   0.23390   0.71169   1.000
    C10_1   C    0.97300   0.76750   0.30660   1.000
    C10_1   C    0.02700   0.23250   0.69340   1.000
    H10A_1  H    0.97929   0.76235   0.32901   1.000
    H10A_1  H    0.02072   0.23765   0.67099   1.000
    H10B_1  H    0.95258   0.74403   0.29864   1.000
    H10B_1  H    0.04742   0.25597   0.70136   1.000
    H10C_1  H    0.95873   0.79698   0.30381   1.000
    H10C_1  H    0.04128   0.20302   0.69619   1.000
    C12_2   C    0.21290   0.59450   0.12650   1.000
    C12_2   C    0.78710   0.40550   0.87350   1.000
    H11A_1  H    0.04211   0.70536   0.30494   1.000
    H11A_1  H    0.95790   0.29464   0.69506   1.000
    H11B_1  H    0.05727   0.71572   0.26954   1.000
    H11B_1  H    0.94273   0.28428   0.73046   1.000
    H11C_1  H    0.00671   0.69931   0.27648   1.000
    H11C_1  H    0.99329   0.30069   0.72352   1.000
    C12_1   C    0.05260   0.79060   0.30850   1.000
    C12_1   C    0.94740   0.20940   0.69150   1.000
    H12A_1  H    0.05745   0.77406   0.32826   1.000
    H12A_1  H    0.94255   0.22594   0.67174   1.000
    H12B_1  H    0.04180   0.82099   0.31329   1.000
    H12B_1  H    0.95820   0.17901   0.68671   1.000
    H12C_1  H    0.08117   0.79246   0.29702   1.000
    H12C_1  H    0.91883   0.20754   0.70298   1.000
    O1_2    O    0.13375   0.79318   0.11417   1.000
    O1_2    O    0.86625   0.20682   0.88583   1.000
    O2_2    O    0.17452   0.75414   0.14896   1.000
    O2_2    O    0.82548   0.24586   0.85104   1.000
    O3_2    O    0.04379   0.71413   0.03361   1.000
    O3_2    O    0.95621   0.28587   0.96639   1.000
    O4_2    O    0.04155   0.63939   0.03371   1.000
    O4_2    O    0.95845   0.36061   0.96629   1.000
    C1_2    C    0.14900   0.75610   0.12480   1.000
    C1_2    C    0.85100   0.24390   0.87520   1.000
    C2_2    C    0.10510   0.71530   0.08410   1.000
    C2_2    C    0.89490   0.28470   0.91590   1.000
    H2_2    H    0.09181   0.74309   0.07791   1.000
    H2_2    H    0.90819   0.25691   0.92209   1.000
    C3_2    C    0.13630   0.71450   0.10769   1.000
    C3_2    C    0.86370   0.28550   0.89231   1.000
    C4_2    C    0.15670   0.67410   0.11640   1.000
    C4_2    C    0.84330   0.32590   0.88360   1.000
    H4_2    H    0.17884   0.67389   0.13278   1.000
    H4_2    H    0.82116   0.32611   0.86722   1.000
    C5_2    C    0.14490   0.63390   0.10140   1.000
    C5_2    C    0.85510   0.36610   0.89860   1.000
    C6_2    C    0.11210   0.63520   0.07820   1.000
    C6_2    C    0.88790   0.36480   0.92180   1.000
    H6_2    H    0.10278   0.60801   0.06840   1.000
    H6_2    H    0.89722   0.39199   0.93160   1.000
    C7_2    C    0.09230   0.67580   0.06886   1.000
    C7_2    C    0.90770   0.32420   0.93114   1.000
    C8_2    C    0.05710   0.67640   0.04429   1.000
    C8_2    C    0.94290   0.32360   0.95571   1.000
    C9_2    C    0.16820   0.58750   0.10870   1.000
    C9_2    C    0.83180   0.41250   0.89130   1.000
    C10_2   C    0.18060   0.56160   0.07866   1.000
    C10_2   C    0.81940   0.43840   0.92134   1.000
    H10A_2  H    0.20803   0.54387   0.08250   1.000
    H10A_2  H    0.79197   0.45613   0.91750   1.000
    H10B_2  H    0.18590   0.58289   0.06146   1.000
    H10B_2  H    0.81410   0.41711   0.93854   1.000
    H10C_2  H    0.15558   0.54144   0.07283   1.000
    H10C_2  H    0.84442   0.45856   0.92717   1.000
    C11_2   C    0.13520   0.55700   0.12650   1.000
    C11_2   C    0.86480   0.44300   0.87350   1.000
    H11A_2  H    0.13393   0.52753   0.11624   1.000
    H11A_2  H    0.86607   0.47247   0.88376   1.000
    H11B_2  H    0.10493   0.57062   0.12619   1.000
    H11B_2  H    0.89507   0.42938   0.87381   1.000
    H11C_2  H    0.14553   0.55349   0.14835   1.000
    H11C_2  H    0.85447   0.44651   0.85165   1.000
    C1_5    C    0.76570   0.86010   0.13768   1.000
    C1_5    C    0.23430   0.13990   0.86232   1.000
    C2_5    C    0.72110   0.90090   0.09734   1.000
    C2_5    C    0.27890   0.09910   0.90266   1.000
    H2_5    H    0.74836   0.91386   0.08987   1.000
    H2_5    H    0.25164   0.08614   0.91013   1.000
    H12A_2  H    0.23024   0.56637   0.12656   1.000
    H12A_2  H    0.76976   0.43363   0.87344   1.000
    H12B_2  H    0.20668   0.60346   0.14828   1.000
    H12B_2  H    0.79332   0.39654   0.85172   1.000
    H12C_2  H    0.23053   0.61806   0.11612   1.000
    H12C_2  H    0.76947   0.38194   0.88388   1.000
    O1_3    O    0.16670   0.91298   0.16196   1.000
    O1_3    O    0.83330   0.08702   0.83804   1.000
    O2_3    O    0.20570   0.87419   0.19741   1.000
    O2_3    O    0.79430   0.12581   0.80259   1.000
    O3_3    O    0.17196   0.07668   0.16248   1.000
    O3_3    O    0.82804   0.92332   0.83752   1.000
    O4_3    O    0.21344   0.11339   0.19769   1.000
    O4_3    O    0.78656   0.88661   0.80231   1.000
    C1_3    C    0.19170   0.91150   0.18663   1.000
    C1_3    C    0.80830   0.08850   0.81337   1.000
    C2_3    C    0.19480   0.99440   0.18780   1.000
    C2_3    C    0.80520   0.00560   0.81220   1.000
    H2_3    H    0.18303   0.99494   0.16688   1.000
    H2_3    H    0.81697   0.00506   0.83312   1.000
    C3_3    C    0.20220   0.95410   0.20280   1.000
    C3_3    C    0.79780   0.04590   0.79720   1.000
    C4_3    C    0.21840   0.95330   0.23300   1.000
    C4_3    C    0.78160   0.04670   0.76700   1.000
    H4_3    H    0.22273   0.92505   0.24306   1.000
    H4_3    H    0.77727   0.07495   0.75694   1.000
    C5_3    C    0.22950   0.99430   0.25020   1.000
    C5_3    C    0.77050   0.00570   0.74980   1.000
    C6_3    C    0.22130   0.03440   0.23390   1.000
    C6_3    C    0.77870   0.96560   0.76610   1.000
    H6_3    H    0.22719   0.06222   0.24402   1.000
    H6_3    H    0.77281   0.93778   0.75598   1.000
    C7_3    C    0.20470   0.03440   0.20320   1.000
    C7_3    C    0.79530   0.96560   0.79680   1.000
    C8_3    C    0.19590   0.07700   0.18650   1.000
    C8_3    C    0.80410   0.92300   0.81350   1.000
    C9_3    C    0.24530   0.98780   0.28530   1.000
    C9_3    C    0.75470   0.01220   0.71470   1.000
    C10_3   C    0.28830   0.95890   0.28420   1.000
    C10_3   C    0.71170   0.04110   0.71580   1.000
    H10A_3  H    0.30356   0.95971   0.30477   1.000
    H10A_3  H    0.69644   0.04029   0.69523   1.000
    H10B_3  H    0.30870   0.97080   0.26806   1.000
    H10B_3  H    0.69130   0.02920   0.73195   1.000
    H10C_3  H    0.28021   0.92784   0.27896   1.000
    H10C_3  H    0.71979   0.07216   0.72104   1.000
    C11_3   C    0.20990   0.95840   0.30250   1.000
    C11_3   C    0.79010   0.04160   0.69750   1.000
    H11A_3  H    0.22088   0.95156   0.32384   1.000
    H11A_3  H    0.77912   0.04844   0.67616   1.000
    H11B_3  H    0.20532   0.93030   0.29083   1.000
    H11B_3  H    0.79468   0.06970   0.70917   1.000
    H11C_3  H    0.18114   0.97470   0.30374   1.000
    H11C_3  H    0.81886   0.02530   0.69626   1.000
    C12_3   C    0.24100   0.03440   0.30030   1.000
    C12_3   C    0.75900   0.96560   0.69970   1.000
    H12A_3  H    0.24285   0.03154   0.32333   1.000
    H12A_3  H    0.75715   0.96846   0.67667   1.000
    H12B_3  H    0.21185   0.04771   0.29436   1.000
    H12B_3  H    0.78815   0.95229   0.70565   1.000
    H12C_3  H    0.26566   0.05365   0.29295   1.000
    H12C_3  H    0.73434   0.94635   0.70705   1.000
    O1_4    O    0.85606   0.92173   0.17352   1.000
    O1_4    O    0.14394   0.07827   0.82648   1.000
    O2_4    O    0.82082   0.88454   0.21184   1.000
    O2_4    O    0.17918   0.11546   0.78816   1.000
    O3_4    O    0.86111   0.08577   0.17394   1.000
    O3_4    O    0.13889   0.91423   0.82606   1.000
    O4_4    O    0.82764   0.12467   0.21211   1.000
    O4_4    O    0.17236   0.87533   0.78789   1.000
    H10C_7  H    0.42079   0.86580   0.13183   1.000
    H10C_7  H    0.57921   0.13420   0.86817   1.000
    C11_7   C    0.44390   0.81360   0.07440   1.000
    C11_7   C    0.55610   0.18640   0.92560   1.000
    H11A_7  H    0.47249   0.80044   0.08188   1.000
    H11A_7  H    0.52751   0.19956   0.91812   1.000
    H11B_7  H    0.44912   0.84487   0.06803   1.000
    H11B_7  H    0.55088   0.15513   0.93197   1.000
    H2_4    H    0.85049   0.00360   0.18106   1.000
    H2_4    H    0.14952   0.99640   0.81894   1.000
    C3_4    C    0.82780   0.96460   0.21662   1.000
    C3_4    C    0.17220   0.03540   0.78338   1.000
    C4_4    C    0.81110   0.96450   0.24664   1.000
    C4_4    C    0.18890   0.03550   0.75336   1.000
    H4_4    H    0.80525   0.93680   0.25695   1.000
    H4_4    H    0.19475   0.06320   0.74305   1.000
    C5_4    C    0.80290   0.00450   0.26200   1.000
    C5_4    C    0.19710   0.99550   0.73800   1.000
    C6_4    C    0.81360   0.04460   0.24670   1.000
    C6_4    C    0.18640   0.95540   0.75330   1.000
    H6_4    H    0.80930   0.07234   0.25738   1.000
    H6_4    H    0.19070   0.92767   0.74262   1.000
    C7_4    C    0.83000   0.04450   0.21682   1.000
    C7_4    C    0.17000   0.95550   0.78318   1.000
    C8_4    C    0.84010   0.08760   0.19997   1.000
    C8_4    C    0.15990   0.91240   0.80003   1.000
    C9_4    C    0.78070   0.00430   0.29540   1.000
    C9_4    C    0.21930   0.99570   0.70460   1.000
    C10_4   C    0.79650   0.04600   0.31370   1.000
    C10_4   C    0.20350   0.95400   0.68630   1.000
    H10A_4  H    0.78111   0.04706   0.33413   1.000
    H10A_4  H    0.21890   0.95294   0.66587   1.000
    H10B_4  H    0.78904   0.07311   0.30163   1.000
    H10B_4  H    0.21096   0.92689   0.69837   1.000
    H10C_4  H    0.82928   0.04448   0.31721   1.000
    H10C_4  H    0.17072   0.95552   0.68279   1.000
    C11_4   C    0.79090   0.96160   0.31430   1.000
    C11_4   C    0.20910   0.03840   0.68570   1.000
    H11A_4  H    0.77068   0.96009   0.33250   1.000
    H11A_4  H    0.22932   0.03991   0.66750   1.000
    H11B_4  H    0.82243   0.96222   0.32168   1.000
    H11B_4  H    0.17757   0.03778   0.67832   1.000
    H11C_4  H    0.78606   0.93519   0.30091   1.000
    H11C_4  H    0.21394   0.06481   0.69909   1.000
    C12_4   C    0.72860   0.00740   0.29390   1.000
    C12_4   C    0.27140   0.99260   0.70610   1.000
    H12A_4  H    0.71607   0.99786   0.31417   1.000
    H12A_4  H    0.28393   0.00214   0.68583   1.000
    H12B_4  H    0.71713   0.98779   0.27712   1.000
    H12B_4  H    0.28287   0.01221   0.72288   1.000
    H12C_4  H    0.71964   0.03850   0.28960   1.000
    H12C_4  H    0.28037   0.96150   0.71040   1.000
    O1_5    O    0.80268   0.87428   0.12569   1.000
    O1_5    O    0.19732   0.12572   0.87431   1.000
    O2_5    O    0.76642   0.83699   0.16337   1.000
    O2_5    O    0.23358   0.16301   0.83663   1.000
    O3_5    O    0.71625   0.95888   0.04651   1.000
    O3_5    O    0.28375   0.04112   0.95349   1.000
    O4_5    O    0.64094   0.96138   0.04894   1.000
    O4_5    O    0.35906   0.03862   0.95106   1.000
    C11_9   C    0.84410   0.56790   0.86890   1.000
    C11_9   C    0.15590   0.43210   0.13110   1.000
    H11A_9  H    0.83187   0.53731   0.86799   1.000
    H11A_9  H    0.16813   0.46270   0.13201   1.000
    H11B_9  H    0.87419   0.56737   0.87877   1.000
    H11B_9  H    0.12581   0.43263   0.12123   1.000
    H11C_9  H    0.84632   0.58007   0.84751   1.000
    H11C_9  H    0.15369   0.41993   0.15249   1.000
    C12_9   C    0.76930   0.60480   0.86900   1.000
    C12_9   C    0.23070   0.39520   0.13100   1.000
    C3_5    C    0.72240   0.87060   0.12183   1.000
    C3_5    C    0.27760   0.12940   0.87817   1.000
    C4_5    C    0.68340   0.84910   0.13150   1.000
    C4_5    C    0.31660   0.15090   0.86850   1.000
    H4_5    H    0.68551   0.82743   0.14790   1.000
    H4_5    H    0.31449   0.17258   0.85210   1.000
    C5_5    C    0.64110   0.85800   0.11810   1.000
    C5_5    C    0.35890   0.14200   0.88190   1.000
    C6_5    C    0.64090   0.89090   0.09370   1.000
    C6_5    C    0.35910   0.10910   0.90630   1.000
    H6_5    H    0.61292   0.89854   0.08386   1.000
    H6_5    H    0.38708   0.10146   0.91614   1.000
    C7_5    C    0.68040   0.91240   0.08364   1.000
    C7_5    C    0.31960   0.08760   0.91636   1.000
    C8_5    C    0.67860   0.94580   0.05840   1.000
    C8_5    C    0.32140   0.05420   0.94160   1.000
    C9_5    C    0.60170   0.82230   0.12494   1.000
    C9_5    C    0.39830   0.17770   0.87506   1.000
    C10_5   C    0.58700   0.84250   0.15660   1.000
    C10_5   C    0.41300   0.15750   0.84340   1.000
    H10A_5  H    0.57185   0.81938   0.16910   1.000
    H10A_5  H    0.42815   0.18062   0.83090   1.000
    H10B_5  H    0.56606   0.86750   0.15269   1.000
    H10B_5  H    0.43394   0.13250   0.84731   1.000
    H10C_5  H    0.61370   0.85351   0.16805   1.000
    H10C_5  H    0.38630   0.14649   0.83195   1.000
    C11_5   C    0.56790   0.81870   0.09740   1.000
    C11_5   C    0.43210   0.18130   0.90260   1.000
    H11A_5  H    0.56752   0.78775   0.08943   1.000
    H11A_5  H    0.43248   0.21225   0.91057   1.000
    H11B_5  H    0.57696   0.83914   0.08047   1.000
    H11B_5  H    0.42304   0.16086   0.91953   1.000
    H11C_5  H    0.53754   0.82682   0.10466   1.000
    H11C_5  H    0.46246   0.17318   0.89534   1.000
    C12_5   C    0.61440   0.77300   0.13270   1.000
    C12_5   C    0.38560   0.22700   0.86730   1.000
    H12A_5  H    0.59195   0.75275   0.12319   1.000
    H12A_5  H    0.40805   0.24725   0.87681   1.000
    H12B_5  H    0.61482   0.76879   0.15562   1.000
    H12B_5  H    0.38518   0.23121   0.84438   1.000
    H12C_5  H    0.64440   0.76628   0.12423   1.000
    H12C_5  H    0.35560   0.23373   0.87577   1.000
    O1_6    O    0.81236   0.13772   0.12554   1.000
    O1_6    O    0.18764   0.86228   0.87446   1.000
    O2_6    O    0.77769   0.17636   0.16336   1.000
    O2_6    O    0.22231   0.82364   0.83664   1.000
    O3_6    O    0.72064   0.05869   0.04544   1.000
    O3_6    O    0.27936   0.94131   0.95456   1.000
    O4_6    O    0.64526   0.06208   0.04834   1.000
    O4_6    O    0.35474   0.93792   0.95166   1.000
    C1_6    C    0.77670   0.15490   0.13749   1.000
    C1_6    C    0.22330   0.84510   0.86251   1.000
    C2_6    C    0.73020   0.11760   0.09651   1.000
    C2_6    C    0.26980   0.88240   0.90349   1.000
    H2_6    H    0.75635   0.10176   0.08986   1.000
    H2_6    H    0.24365   0.89824   0.91014   1.000
    C3_6    C    0.73300   0.14840   0.12078   1.000
    C3_6    C    0.26700   0.85160   0.87922   1.000
    C4_6    C    0.69580   0.17450   0.12880   1.000
    C4_6    C    0.30420   0.82550   0.87120   1.000
    H4_6    H    0.69867   0.19636   0.14505   1.000
    H4_6    H    0.30133   0.80364   0.85495   1.000
    C5_6    C    0.65410   0.16910   0.11330   1.000
    C5_6    C    0.34590   0.83090   0.88670   1.000
    C6_6    C    0.65180   0.13530   0.09070   1.000
    C6_6    C    0.34820   0.86470   0.90930   1.000
    H6_6    H    0.62347   0.12936   0.08083   1.000
    H6_6    H    0.37653   0.87064   0.91917   1.000
    C7_6    C    0.68870   0.11010   0.08198   1.000
    C7_6    C    0.31130   0.88990   0.91802   1.000
    C8_6    C    0.68450   0.07460   0.05685   1.000
    C8_6    C    0.31550   0.92540   0.94315   1.000
    C9_6    C    0.61170   0.19130   0.12619   1.000
    C9_6    C    0.38830   0.80870   0.87381   1.000
    C10_6   C    0.59430   0.16680   0.15600   1.000
    C10_6   C    0.40570   0.83320   0.84400   1.000
    H10A_6  H    0.58074   0.18876   0.17031   1.000
    H10A_6  H    0.41926   0.81124   0.82969   1.000
    H10B_6  H    0.61965   0.15173   0.16660   1.000
    H10B_6  H    0.38035   0.84827   0.83340   1.000
    H10C_6  H    0.57146   0.14451   0.14980   1.000
    H10C_6  H    0.42854   0.85550   0.85020   1.000
    C11_6   C    0.57180   0.19090   0.10310   1.000
    C11_6   C    0.42820   0.80910   0.89690   1.000
    H11A_6  H    0.54527   0.20429   0.11309   1.000
    H11A_6  H    0.45473   0.79571   0.88691   1.000
    H11B_6  H    0.56498   0.15985   0.09695   1.000
    H11B_6  H    0.43502   0.84015   0.90305   1.000
    H11C_6  H    0.57966   0.20832   0.08426   1.000
    H11C_6  H    0.42034   0.79168   0.91574   1.000
    C12_6   C    0.62220   0.23930   0.13720   1.000
    C12_6   C    0.37780   0.76070   0.86280   1.000
    H12A_6  H    0.59391   0.25458   0.14269   1.000
    H12A_6  H    0.40609   0.74542   0.85731   1.000
    H12B_6  H    0.63722   0.25580   0.12027   1.000
    H12B_6  H    0.36278   0.74420   0.87973   1.000
    H12C_6  H    0.64215   0.23824   0.15579   1.000
    H12C_6  H    0.35785   0.76176   0.84421   1.000
    O1_7    O    0.20785   0.86181   0.11009   1.000
    O1_7    O    0.79215   0.13819   0.88991   1.000
    O2_7    O    0.24880   0.82143   0.14469   1.000
    O2_7    O    0.75120   0.17857   0.85531   1.000
    O3_7    O    0.28526   0.94203   0.02434   1.000
    O3_7    O    0.71474   0.05797   0.97566   1.000
    O4_7    O    0.36082   0.93843   0.02150   1.000
    O4_7    O    0.63918   0.06157   0.97850   1.000
    C1_7    C    0.24500   0.84430   0.11968   1.000
    C1_7    C    0.75500   0.15570   0.88032   1.000
    C2_7    C    0.28460   0.88310   0.07554   1.000
    C2_7    C    0.71540   0.11690   0.92446   1.000
    H2_7    H    0.25721   0.89800   0.07004   1.000
    H2_7    H    0.74279   0.10200   0.92996   1.000
    C3_7    C    0.28600   0.85230   0.09998   1.000
    C3_7    C    0.71400   0.14770   0.90002   1.000
    C4_7    C    0.32580   0.82990   0.10750   1.000
    C4_7    C    0.67420   0.17010   0.89250   1.000
    H4_7    H    0.32636   0.80983   0.12491   1.000
    H4_7    H    0.67364   0.19017   0.87509   1.000
    C5_7    C    0.36540   0.83640   0.08980   1.000
    C5_7    C    0.63460   0.16360   0.91020   1.000
    C6_7    C    0.36320   0.86850   0.06580   1.000
    C6_7    C    0.63680   0.13150   0.93420   1.000
    H6_7    H    0.38946   0.87457   0.05368   1.000
    H6_7    H    0.61054   0.12543   0.94632   1.000
    C7_7    C    0.32380   0.89160   0.05945   1.000
    C7_7    C    0.67620   0.10840   0.94055   1.000
    C8_7    C    0.32310   0.92530   0.03320   1.000
    C8_7    C    0.67690   0.07470   0.96680   1.000
    C9_7    C    0.40920   0.81250   0.10102   1.000
    C9_7    C    0.59080   0.18750   0.89898   1.000
    C10_7   C    0.43060   0.83440   0.13040   1.000
    C10_7   C    0.56940   0.16560   0.86960   1.000
    H10A_7  H    0.46370   0.83325   0.12884   1.000
    H10A_7  H    0.53630   0.16675   0.87116   1.000
    H10B_7  H    0.42104   0.81813   0.14932   1.000
    H10B_7  H    0.57896   0.18187   0.85068   1.000
    H11C_7  H    0.43245   0.79641   0.05638   1.000
    H11C_7  H    0.56756   0.20359   0.94362   1.000
    C12_7   C    0.40060   0.76340   0.11070   1.000
    C12_7   C    0.59940   0.23660   0.88930   1.000
    H12A_7  H    0.42961   0.74874   0.11543   1.000
    H12A_7  H    0.57039   0.25127   0.88457   1.000
    H12B_7  H    0.38528   0.74754   0.09348   1.000
    H12B_7  H    0.61472   0.25246   0.90652   1.000
    H12C_7  H    0.38156   0.76281   0.12954   1.000
    H12C_7  H    0.61844   0.23719   0.87046   1.000
    O1_8    O    0.87259   0.80220   0.12260   1.000
    O1_8    O    0.12741   0.19780   0.87740   1.000
    O2_8    O    0.83583   0.76458   0.16002   1.000
    O2_8    O    0.16417   0.23542   0.83998   1.000
    O3_8    O    0.94390   0.71725   0.03643   1.000
    O3_8    O    0.05610   0.28275   0.96357   1.000
    O4_8    O    0.94055   0.64226   0.03642   1.000
    O4_8    O    0.05945   0.35774   0.96358   1.000
    C1_8    C    0.85650   0.76600   0.13376   1.000
    C1_8    C    0.14350   0.23400   0.86624   1.000
    C2_8    C    0.89040   0.72220   0.08941   1.000
    C2_8    C    0.10960   0.27780   0.91059   1.000
    H2_8    H    0.90552   0.74872   0.08273   1.000
    H2_8    H    0.09448   0.25129   0.91727   1.000
    C3_8    C    0.86160   0.72330   0.11548   1.000
    C3_8    C    0.13840   0.27670   0.88452   1.000
    C4_8    C    0.83810   0.68550   0.12430   1.000
    C4_8    C    0.16190   0.31450   0.87570   1.000
    H4_8    H    0.81866   0.68683   0.14201   1.000
    H4_8    H    0.18134   0.31317   0.85799   1.000
    C5_8    C    0.84240   0.64490   0.10750   1.000
    C5_8    C    0.15760   0.35510   0.89250   1.000
    C6_8    C    0.87190   0.64490   0.08280   1.000
    C6_8    C    0.12810   0.35510   0.91720   1.000
    H6_8    H    0.87583   0.61779   0.07126   1.000
    H6_8    H    0.12417   0.38221   0.92874   1.000
    C7_8    C    0.89640   0.68260   0.07374   1.000
    C7_8    C    0.10360   0.31740   0.92626   1.000
    C8_8    C    0.92870   0.68050   0.04735   1.000
    C8_8    C    0.07130   0.31950   0.95265   1.000
    C9_8    C    0.81660   0.60310   0.11920   1.000
    C9_8    C    0.18340   0.39690   0.88080   1.000
    C10_8   C    0.83470   0.58930   0.15190   1.000
    C10_8   C    0.16530   0.41070   0.84810   1.000
    H10A_8  H    0.81527   0.56584   0.16069   1.000
    H10A_8  H    0.18473   0.43416   0.83931   1.000
    H10B_8  H    0.83471   0.61553   0.16589   1.000
    H10B_8  H    0.16529   0.38447   0.83411   1.000
    H10C_8  H    0.86566   0.57784   0.14993   1.000
    H10C_8  H    0.13434   0.42216   0.85007   1.000
    C11_8   C    0.76700   0.61580   0.12400   1.000
    C11_8   C    0.23300   0.38420   0.87600   1.000
    H11A_8  H    0.74919   0.58853   0.12786   1.000
    H11A_8  H    0.25081   0.41147   0.87214   1.000
    H11B_8  H    0.75541   0.63085   0.10501   1.000
    H11B_8  H    0.24459   0.36915   0.89499   1.000
    H11C_8  H    0.76448   0.63605   0.14208   1.000
    H11C_8  H    0.23552   0.36396   0.85792   1.000
    C12_8   C    0.82140   0.56220   0.09790   1.000
    C12_8   C    0.17860   0.43780   0.90210   1.000
    H12A_8  H    0.80559   0.53656   0.10733   1.000
    H12A_8  H    0.19441   0.46344   0.89267   1.000
    H12B_8  H    0.85357   0.55482   0.09558   1.000
    H12B_8  H    0.14643   0.44518   0.90442   1.000
    H12C_8  H    0.80817   0.56882   0.07720   1.000
    H12C_8  H    0.19183   0.43118   0.92280   1.000
    O1_9    O    0.93927   0.71716   0.96564   1.000
    O1_9    O    0.06073   0.28284   0.03436   1.000
    O2_9    O    0.93672   0.64227   0.96576   1.000
    O2_9    O    0.06328   0.35773   0.03424   1.000
    O3_9    O    0.85236   0.80215   0.88608   1.000
    O3_9    O    0.14764   0.19785   0.11392   1.000
    O4_9    O    0.80919   0.76519   0.85123   1.000
    O4_9    O    0.19081   0.23481   0.14877   1.000
    C1_9    C    0.92280   0.68051   0.95536   1.000
    C1_9    C    0.07720   0.31949   0.04464   1.000
    C2_9    C    0.87690   0.72250   0.91606   1.000
    C2_9    C    0.12310   0.27750   0.08394   1.000
    H2_9    H    0.89197   0.74941   0.92219   1.000
    H2_9    H    0.10803   0.25059   0.07781   1.000
    C3_9    C    0.88710   0.68190   0.93086   1.000
    C3_9    C    0.11290   0.31810   0.06914   1.000
    C4_9    C    0.86430   0.64350   0.92192   1.000
    C4_9    C    0.13570   0.35650   0.07808   1.000
    H4_9    H    0.87150   0.61611   0.93230   1.000
    H4_9    H    0.12850   0.38389   0.06770   1.000
    C5_9    C    0.83210   0.64320   0.89890   1.000
    C5_9    C    0.16790   0.35680   0.10110   1.000
    C6_9    C    0.82200   0.68380   0.88377   1.000
    C6_9    C    0.17800   0.31620   0.11623   1.000
    H6_9    H    0.79955   0.68465   0.86758   1.000
    H6_9    H    0.20045   0.31535   0.13242   1.000
    C7_9    C    0.84480   0.72300   0.89247   1.000
    C7_9    C    0.15520   0.27700   0.10753   1.000
    C8_9    C    0.83510   0.76550   0.87591   1.000
    C8_9    C    0.16490   0.23450   0.12409   1.000
    C9_9    C    0.81220   0.59790   0.88858   1.000
    C9_9    C    0.18780   0.40210   0.11142   1.000
    C10_9   C    0.80040   0.56930   0.91746   1.000
    C10_9   C    0.19960   0.43070   0.08254   1.000
    H10A_9  H    0.78765   0.54054   0.91049   1.000
    H10A_9  H    0.21235   0.45946   0.08951   1.000
    H10B_9  H    0.77807   0.58531   0.93027   1.000
    H10B_9  H    0.22193   0.41469   0.06973   1.000
    H10C_9  H    0.82780   0.56392   0.93005   1.000
    H10C_9  H    0.17220   0.43608   0.06995   1.000
    H12A_9  H    0.75583   0.57554   0.86397   1.000
    H12A_9  H    0.24417   0.42446   0.13603   1.000
    H12B_9  H    0.77685   0.62048   0.84939   1.000
    H12B_9  H    0.22316   0.37952   0.15061   1.000
    H12C_9  H    0.74768   0.62284   0.88098   1.000
    H12C_9  H    0.25232   0.37716   0.11902   1.000
    O1_10   O    0.10159   0.14998   0.16520   1.000
    O1_10   O    0.89841   0.85002   0.83480   1.000
    O2_10   O    0.14387   0.18597   0.20074   1.000
    O2_10   O    0.85613   0.81403   0.79926   1.000
    O3_10   O    0.93699   0.15394   0.17164   1.000
    O3_10   O    0.06301   0.84606   0.82836   1.000
    O4_10   O    0.90349   0.19235   0.21031   1.000
    O4_10   O    0.09651   0.80765   0.78969   1.000
    C1_10   C    0.10550   0.17180   0.19043   1.000
    C1_10   C    0.89450   0.82820   0.80957   1.000
    C2_10   C    0.02240   0.17320   0.19586   1.000
    C2_10   C    0.97760   0.82680   0.80414   1.000
    H2_10   H    0.02028   0.16001   0.17549   1.000
    H2_10   H    0.97972   0.83999   0.82451   1.000
    C3_10   C    0.06430   0.18160   0.20927   1.000
    C3_10   C    0.93570   0.81840   0.79073   1.000
    C4_10   C    0.06760   0.20050   0.23915   1.000
    C4_10   C    0.93240   0.79950   0.76085   1.000
    H4_10   H    0.09667   0.20658   0.24797   1.000
    H4_10   H    0.90333   0.79342   0.75203   1.000
    C5_10   C    0.02920   0.21070   0.25624   1.000
    C5_10   C    0.97080   0.78930   0.74376   1.000
    C6_10   C    0.98670   0.20320   0.24209   1.000
    C6_10   C    0.01330   0.79680   0.75791   1.000
    H6_10   H    0.95998   0.21141   0.25297   1.000
    H6_10   H    0.04002   0.78859   0.74703   1.000
    C7_10   C    0.98340   0.18400   0.21233   1.000
    C7_10   C    0.01660   0.81600   0.78767   1.000
    C8_10   C    0.93880   0.17650   0.19750   1.000
    C8_10   C    0.06120   0.82350   0.80250   1.000
    C9_10   C    0.03330   0.22940   0.28897   1.000
    C9_10   C    0.96670   0.77060   0.71103   1.000
    C10_10  C    0.06450   0.19970   0.30890   1.000
    C10_10  C    0.93550   0.80030   0.69110   1.000
    H10A_10 H    0.07054   0.21436   0.32920   1.000
    H10A_10 H    0.92946   0.78564   0.67080   1.000
    H10B_10 H    0.09312   0.19512   0.29780   1.000
    H10B_10 H    0.90689   0.80488   0.70220   1.000
    H10C_10 H    0.04991   0.17060   0.31249   1.000
    H10C_10 H    0.95009   0.82940   0.68751   1.000
    C11_10  C    0.05190   0.27740   0.28660   1.000
    C11_10  C    0.94810   0.72260   0.71340   1.000
    H11A_10 H    0.05733   0.28929   0.30787   1.000
    H11A_10 H    0.94267   0.71071   0.69213   1.000
    H11B_10 H    0.02986   0.29646   0.27558   1.000
    H11B_10 H    0.97014   0.70354   0.72442   1.000
    H11C_10 H    0.08039   0.27704   0.27495   1.000
    H11C_10 H    0.91961   0.72296   0.72505   1.000
    C12_10  C    0.98810   0.23260   0.30620   1.000
    C12_10  C    0.01190   0.76740   0.69380   1.000
    H12A_10 H    0.99306   0.24559   0.32723   1.000
    H12A_10 H    0.00694   0.75441   0.67277   1.000
    H12B_10 H    0.97497   0.20251   0.30836   1.000
    H12B_10 H    0.02503   0.79749   0.69164   1.000
    H12C_10 H    0.96720   0.25181   0.29421   1.000
    H12C_10 H    0.03280   0.74819   0.70579   1.000
    O1_11   O    0.21730   0.12445   0.11064   1.000
    O1_11   O    0.78270   0.87555   0.88936   1.000
    O2_11   O    0.26015   0.16112   0.14554   1.000
    O2_11   O    0.73985   0.83888   0.85446   1.000
    O3_11   O    0.28916   0.04083   0.02454   1.000
    O3_11   O    0.71084   0.95917   0.97546   1.000
    O4_11   O    0.36434   0.03845   0.02163   1.000
    O4_11   O    0.63566   0.96155   0.97837   1.000
    C1_11   C    0.25540   0.13820   0.12079   1.000
    C1_11   C    0.74460   0.86180   0.87921   1.000
    C2_11   C    0.29270   0.09820   0.07653   1.000
    C2_11   C    0.70730   0.90180   0.92347   1.000
    H2_11   H    0.26386   0.08690   0.07029   1.000
    H2_11   H    0.73614   0.91310   0.92971   1.000
    C3_11   C    0.29670   0.12660   0.10161   1.000
    C3_11   C    0.70330   0.87340   0.89839   1.000
    C4_11   C    0.33840   0.14410   0.11061   1.000
    C4_11   C    0.66160   0.85590   0.88939   1.000
    H4_11   H    0.34046   0.16357   0.12833   1.000
    H4_11   H    0.65954   0.83643   0.87167   1.000
    C5_11   C    0.37690   0.13340   0.09390   1.000
    C5_11   C    0.62310   0.86660   0.90610   1.000
    C6_11   C    0.37300   0.10350   0.06867   1.000
    C6_11   C    0.62700   0.89650   0.93133   1.000
    H6_11   H    0.39935   0.09517   0.05732   1.000
    H6_11   H    0.60065   0.90483   0.94268   1.000
    C7_11   C    0.33190   0.08600   0.06004   1.000
    C7_11   C    0.66810   0.91400   0.93996   1.000
    C8_11   C    0.32848   0.05330   0.03370   1.000
    C8_11   C    0.67152   0.94670   0.96630   1.000
    C9_11   C    0.42470   0.15030   0.10283   1.000
    C9_11   C    0.57530   0.84970   0.89717   1.000
    C10_11  C    0.42470   0.17800   0.13310   1.000
    C10_11  C    0.57530   0.82200   0.86690   1.000
    H10A_11 H    0.45560   0.17978   0.14166   1.000
    H10A_11 H    0.54440   0.82022   0.85834   1.000
    H10B_11 H    0.40495   0.16365   0.14861   1.000
    H10B_11 H    0.59505   0.83635   0.85139   1.000
    H10C_11 H    0.41357   0.20837   0.12856   1.000
    H10C_11 H    0.58643   0.79163   0.87144   1.000
    C11_11  C    0.44380   0.17720   0.07510   1.000
    C11_11  C    0.55620   0.82280   0.92490   1.000
    H11A_11 H    0.47208   0.19192   0.08167   1.000
    H11A_11 H    0.52792   0.80808   0.91833   1.000
    H11B_11 H    0.42180   0.20002   0.06849   1.000
    H11B_11 H    0.57821   0.79998   0.93151   1.000
    H11C_11 H    0.44987   0.15685   0.05748   1.000
    H11C_11 H    0.55014   0.84315   0.94252   1.000
    C12_11  C    0.45630   0.10990   0.10750   1.000
    C12_11  C    0.54370   0.89010   0.89250   1.000
    H12A_11 H    0.48673   0.11763   0.10012   1.000
    H12A_11 H    0.51327   0.88237   0.89988   1.000
    H12B_11 H    0.44471   0.08424   0.09546   1.000
    H12B_11 H    0.55529   0.91576   0.90454   1.000
    H12C_11 H    0.45778   0.10211   0.12994   1.000
    H12C_11 H    0.54222   0.89789   0.87006   1.000
    O1_12   O    0.88598   0.20550   0.12375   1.000
    O1_12   O    0.11402   0.79450   0.87625   1.000
    O2_12   O    0.85169   0.24415   0.16144   1.000
    O2_12   O    0.14831   0.75585   0.83856   1.000
    O3_12   O    0.96132   0.28521   0.03726   1.000
    O3_12   O    0.03868   0.71479   0.96274   1.000
    O4_12   O    0.96272   0.36042   0.03721   1.000
    O4_12   O    0.03728   0.63958   0.96279   1.000
    C1_12   C    0.87210   0.24170   0.13499   1.000
    C1_12   C    0.12790   0.75830   0.86501   1.000
    C2_12   C    0.90840   0.28370   0.09088   1.000
    C2_12   C    0.09160   0.71630   0.90912   1.000
    H2_12   H    0.92282   0.25660   0.08476   1.000
    H2_12   H    0.07718   0.74340   0.91524   1.000
    C3_12   C    0.87940   0.28420   0.11634   1.000
    C3_12   C    0.12060   0.71580   0.88366   1.000
    C4_12   C    0.85640   0.32300   0.12390   1.000
    C4_12   C    0.14360   0.67700   0.87610   1.000
    H4_12   H    0.83679   0.32277   0.14157   1.000
    H4_12   H    0.16321   0.67723   0.85843   1.000
    C5_12   C    0.86110   0.36230   0.10670   1.000
    C5_12   C    0.13890   0.63770   0.89330   1.000
    C6_12   C    0.89280   0.36210   0.08210   1.000
    C6_12   C    0.10720   0.63790   0.91790   1.000
    H6_12   H    0.89846   0.38879   0.07050   1.000
    H6_12   H    0.10154   0.61121   0.92950   1.000
    C7_12   C    0.91600   0.32260   0.07461   1.000
    C7_12   C    0.08400   0.67740   0.92539   1.000
    C8_12   C    0.94850   0.32340   0.04802   1.000
    C8_12   C    0.05150   0.67660   0.95198   1.000
    C9_12   C    0.83350   0.40490   0.11635   1.000
    C9_12   C    0.16650   0.59510   0.88365   1.000
    C10_12  C    0.78400   0.39040   0.12190   1.000
    C10_12  C    0.21600   0.60960   0.87810   1.000
    H10A_12 H    0.76619   0.41646   0.12853   1.000
    H10A_12 H    0.23381   0.58354   0.87147   1.000
    H10B_12 H    0.78319   0.36734   0.13844   1.000
    H10B_12 H    0.21681   0.63266   0.86156   1.000
    H10C_12 H    0.77120   0.37808   0.10235   1.000
    H10C_12 H    0.22880   0.62192   0.89765   1.000
    C11_12  C    0.85110   0.41830   0.14930   1.000
    C11_12  C    0.14890   0.58170   0.85070   1.000
    H11A_12 H    0.82921   0.43827   0.15941   1.000
    H11A_12 H    0.17079   0.56173   0.84059   1.000
    H11B_12 H    0.88021   0.43387   0.14731   1.000
    H11B_12 H    0.11979   0.56613   0.85269   1.000
    H11C_12 H    0.85523   0.39123   0.16223   1.000
    H11C_12 H    0.14477   0.60877   0.83777   1.000
    C12_12  C    0.83120   0.43700   0.08820   1.000
    C12_12  C    0.16880   0.56300   0.91180   1.000
    H12A_12 H    0.82018   0.46642   0.09523   1.000
    H12A_12 H    0.17983   0.53358   0.90477   1.000
    H12B_12 H    0.81055   0.42487   0.07216   1.000
    H12B_12 H    0.18945   0.57513   0.92784   1.000
    H12C_12 H    0.86151   0.44044   0.07923   1.000
    H12C_12 H    0.13849   0.55956   0.92077   1.000
