#======================================================================

# CRYSTAL DATA

#----------------------------------------------------------------------

data_VESTA_phase_1


_chemical_name_common                  ''
_cell_length_a                         39.887(3)
_cell_length_b                         39.887(3)
_cell_length_c                         39.887(3)
_cell_angle_alpha                      90
_cell_angle_beta                       90
_cell_angle_gamma                      90
_space_group_name_H-M_alt              'P -1'
_space_group_IT_number                 2

loop_
_space_group_symop_operation_xyz
   'x, y, z'
   '-x, -y, -z'

loop_
   _atom_site_label
   _atom_site_occupancy
   _atom_site_fract_x
   _atom_site_fract_y
   _atom_site_fract_z
   _atom_site_adp_type
   _atom_site_B_iso_or_equiv
   _atom_site_type_symbol
   Co1        1.0     0.859450(14)  0.000000(14)  0.359450(14) Biso  1.000000 Co
   Co1        1.0     0.859450(14) -0.140550(14)  0.500000(14) Biso  1.000000 Co
   Co1        1.0     1.000000(14)  0.359450(14) -0.140550(14) Biso  1.000000 Co
   Co1        1.0     0.859450(14)  0.500000(14) -0.140550(14) Biso  1.000000 Co
   Co1        1.0     0.859450(14)  0.359450(14)  0.000000(14) Biso  1.000000 Co
   Co1        1.0     0.500000(14)  0.359450(14)  0.359450(14) Biso  1.000000 Co
   Co1        1.0     0.359450(14)  0.500000(14)  0.359450(14) Biso  1.000000 Co
   Co1        1.0     0.359450(14)  0.359450(14)  0.500000(14) Biso  1.000000 Co
   Co1        1.0     0.500000(14)  0.140550(14) -0.140550(14) Biso  1.000000 Co
   Co1        1.0     0.859450(14)  0.140550(14)  0.500000(14) Biso  1.000000 Co
   Co1        1.0     1.140550(14)  0.500000(14) -0.140550(14) Biso  1.000000 Co
   Co1        1.0     0.640550(14)  0.500000(14)  0.359450(14) Biso  1.000000 Co
   Co1        1.0     0.500000(14)  0.359450(14)  0.640550(14) Biso  1.000000 Co
   Co1        1.0     0.359450(14)  0.640550(14)  0.500000(14) Biso  1.000000 Co
   Co1        1.0     0.640550(14)  0.000000(14) -0.140550(14) Biso  1.000000 Co
   Co1        1.0     0.359450(14)  0.140550(14)  0.000000(14) Biso  1.000000 Co
   Co1        1.0     1.000000(14)  0.140550(14)  0.359450(14) Biso  1.000000 Co
   Co1        1.0     0.859450(14)  0.000000(14)  0.640550(14) Biso  1.000000 Co
   Co1        1.0     1.140550(14)  0.359450(14)  0.000000(14) Biso  1.000000 Co
   Co1        1.0     1.000000(14)  0.359450(14)  0.140550(14) Biso  1.000000 Co
   Co2        1.0     0.500000(14)  0.190150(14)  0.190150(14) Biso  1.000000 Co
   Co2        1.0     0.690150(14)  0.000000(14)  0.190150(14) Biso  1.000000 Co
   Co2        1.0     0.690150(14)  0.190150(14)  0.000000(14) Biso  1.000000 Co
   Co2        1.0     1.000000(14) -0.190150(14)  0.309850(14) Biso  1.000000 Co
   Co2        1.0     0.809850(14)  0.000000(14)  0.309850(14) Biso  1.000000 Co
   Co2        1.0     0.809850(14) -0.190150(14)  0.500000(14) Biso  1.000000 Co
   Co2        1.0     1.000000(14)  0.309850(14) -0.190150(14) Biso  1.000000 Co
   Co2        1.0     0.809850(14)  0.500000(14) -0.190150(14) Biso  1.000000 Co
   Co2        1.0     0.809850(14)  0.309850(14)  0.000000(14) Biso  1.000000 Co
   Co2        1.0     0.500000(14)  0.309850(14)  0.309850(14) Biso  1.000000 Co
   Co2        1.0     0.309850(14)  0.500000(14)  0.309850(14) Biso  1.000000 Co
   Co2        1.0     0.309850(14)  0.309850(14)  0.500000(14) Biso  1.000000 Co
   Co2        1.0     0.500000(14)  0.190150(14) -0.190150(14) Biso  1.000000 Co
   Co2        1.0     0.809850(14)  0.190150(14)  0.500000(14) Biso  1.000000 Co
   Co2        1.0     1.190150(14)  0.500000(14) -0.190150(14) Biso  1.000000 Co
   Co2        1.0     0.690150(14)  0.500000(14)  0.309850(14) Biso  1.000000 Co
   Co2        1.0     0.500000(14)  0.309850(14)  0.690150(14) Biso  1.000000 Co
   Co2        1.0     0.309850(14)  0.690150(14)  0.500000(14) Biso  1.000000 Co
   Co2        1.0     0.690150(14)  0.000000(14) -0.190150(14) Biso  1.000000 Co
   Co2        1.0     0.309850(14)  0.190150(14)  0.000000(14) Biso  1.000000 Co
   Co2        1.0     1.000000(14)  0.190150(14)  0.309850(14) Biso  1.000000 Co
   Co2        1.0     0.809850(14)  0.000000(14)  0.690150(14) Biso  1.000000 Co
   Co2        1.0     1.190150(14)  0.309850(14)  0.000000(14) Biso  1.000000 Co
   Co2        1.0     1.000000(14)  0.309850(14)  0.190150(14) Biso  1.000000 Co
   C1         1.0     0.58996(9)    0.20088(9)    0.08996(9)   Biso  1.000000 C
   C1         1.0     0.58996(9)    0.08996(9)    0.20088(9)   Biso  1.000000 C
   C1         1.0     0.70088(9)    0.08996(9)    0.08996(9)   Biso  1.000000 C
   C1         1.0     0.91004(9)   -0.20088(9)    0.41004(9)   Biso  1.000000 C
   C1         1.0     0.91004(9)   -0.08996(9)    0.29912(9)   Biso  1.000000 C
   C1         1.0     0.79912(9)   -0.08996(9)    0.41004(9)   Biso  1.000000 C
   C1         1.0     0.91004(9)    0.29912(9)   -0.08996(9)   Biso  1.000000 C
   C1         1.0     0.91004(9)    0.41004(9)   -0.20088(9)   Biso  1.000000 C
   C1         1.0     0.79912(9)    0.41004(9)   -0.08996(9)   Biso  1.000000 C
   C1         1.0     0.41004(9)    0.29912(9)    0.41004(9)   Biso  1.000000 C
   C1         1.0     0.41004(9)    0.41004(9)    0.29912(9)   Biso  1.000000 C
   C1         1.0     0.29912(9)    0.41004(9)    0.41004(9)   Biso  1.000000 C
   C1         1.0     0.58996(9)    0.20088(9)   -0.08996(9)   Biso  1.000000 C
   C1         1.0     0.58996(9)    0.08996(9)   -0.20088(9)   Biso  1.000000 C
   C1         1.0     0.41004(9)    0.20088(9)    0.08996(9)   Biso  1.000000 C
   C1         1.0     0.41004(9)    0.08996(9)    0.20088(9)   Biso  1.000000 C
   C1         1.0     0.58996(9)   -0.08996(9)    0.20088(9)   Biso  1.000000 C
   C1         1.0     0.70088(9)   -0.08996(9)    0.08996(9)   Biso  1.000000 C
   C1         1.0     0.70088(9)    0.08996(9)   -0.08996(9)   Biso  1.000000 C
   C1         1.0     0.91004(9)    0.20088(9)    0.41004(9)   Biso  1.000000 C
   C1         1.0     0.79912(9)    0.08996(9)    0.41004(9)   Biso  1.000000 C
   C1         1.0     0.79912(9)   -0.08996(9)    0.58996(9)   Biso  1.000000 C
   C1         1.0     0.91004(9)   -0.20088(9)    0.58996(9)   Biso  1.000000 C
   C1         1.0     1.08996(9)   -0.20088(9)    0.41004(9)   Biso  1.000000 C
   C1         1.0     1.08996(9)   -0.08996(9)    0.29912(9)   Biso  1.000000 C
   C1         1.0     0.91004(9)    0.08996(9)    0.29912(9)   Biso  1.000000 C
   C1         1.0     1.08996(9)    0.41004(9)   -0.20088(9)   Biso  1.000000 C
   C1         1.0     1.20088(9)    0.41004(9)   -0.08996(9)   Biso  1.000000 C
   C1         1.0     0.91004(9)    0.29912(9)    0.08996(9)   Biso  1.000000 C
   C1         1.0     1.08996(9)    0.29912(9)   -0.08996(9)   Biso  1.000000 C
   C1         1.0     0.91004(9)    0.58996(9)   -0.20088(9)   Biso  1.000000 C
   C1         1.0     0.79912(9)    0.58996(9)   -0.08996(9)   Biso  1.000000 C
   C1         1.0     0.79912(9)    0.41004(9)    0.08996(9)   Biso  1.000000 C
   C1         1.0     0.58996(9)    0.41004(9)    0.29912(9)   Biso  1.000000 C
   C1         1.0     0.70088(9)    0.41004(9)    0.41004(9)   Biso  1.000000 C
   C1         1.0     0.41004(9)    0.29912(9)    0.58996(9)   Biso  1.000000 C
   C1         1.0     0.41004(9)    0.41004(9)    0.70088(9)   Biso  1.000000 C
   C1         1.0     0.41004(9)    0.70088(9)    0.41004(9)   Biso  1.000000 C
   C1         1.0     0.29912(9)    0.58996(9)    0.41004(9)   Biso  1.000000 C
   C1         1.0     0.58996(9)    0.29912(9)    0.41004(9)   Biso  1.000000 C
   C1         1.0     0.41004(9)    0.58996(9)    0.29912(9)   Biso  1.000000 C
   C1         1.0     0.29912(9)    0.41004(9)    0.58996(9)   Biso  1.000000 C
   C1         1.0     0.41004(9)    0.20088(9)   -0.08996(9)   Biso  1.000000 C
   C1         1.0     0.79912(9)    0.08996(9)    0.58996(9)   Biso  1.000000 C
   C1         1.0     1.08996(9)    0.58996(9)   -0.20088(9)   Biso  1.000000 C
   C1         1.0     0.70088(9)   -0.08996(9)   -0.08996(9)   Biso  1.000000 C
   C1         1.0     1.08996(9)    0.08996(9)    0.29912(9)   Biso  1.000000 C
   C1         1.0     1.08996(9)    0.29912(9)    0.08996(9)   Biso  1.000000 C
   C2         1.0     0.57488(8)    0.21549(8)    0.11732(8)   Biso  1.000000 C
   C2         1.0     0.61732(8)    0.07488(8)    0.21549(8)   Biso  1.000000 C
   C2         1.0     0.71549(8)    0.11732(8)    0.07488(8)   Biso  1.000000 C
   C2         1.0     0.71549(8)    0.07488(8)    0.11732(8)   Biso  1.000000 C
   C2         1.0     0.57488(8)    0.11732(8)    0.21549(8)   Biso  1.000000 C
   C2         1.0     0.61732(8)    0.21549(8)    0.07488(8)   Biso  1.000000 C
   C2         1.0     0.92512(8)   -0.21549(8)    0.38268(8)   Biso  1.000000 C
   C2         1.0     0.88268(8)   -0.07488(8)    0.28451(8)   Biso  1.000000 C
   C2         1.0     0.78451(8)   -0.11732(8)    0.42512(8)   Biso  1.000000 C
   C2         1.0     0.78451(8)   -0.07488(8)    0.38268(8)   Biso  1.000000 C
   C2         1.0     0.92512(8)   -0.11732(8)    0.28451(8)   Biso  1.000000 C
   C2         1.0     0.88268(8)   -0.21549(8)    0.42512(8)   Biso  1.000000 C
   C2         1.0     0.92512(8)    0.28451(8)   -0.11732(8)   Biso  1.000000 C
   C2         1.0     0.88268(8)    0.42512(8)   -0.21549(8)   Biso  1.000000 C
   C2         1.0     0.78451(8)    0.38268(8)   -0.07488(8)   Biso  1.000000 C
   C2         1.0     0.78451(8)    0.42512(8)   -0.11732(8)   Biso  1.000000 C
   C2         1.0     0.92512(8)    0.38268(8)   -0.21549(8)   Biso  1.000000 C
   C2         1.0     0.88268(8)    0.28451(8)   -0.07488(8)   Biso  1.000000 C
   C2         1.0     0.42512(8)    0.28451(8)    0.38268(8)   Biso  1.000000 C
   C2         1.0     0.38268(8)    0.42512(8)    0.28451(8)   Biso  1.000000 C
   C2         1.0     0.28451(8)    0.38268(8)    0.42512(8)   Biso  1.000000 C
   C2         1.0     0.28451(8)    0.42512(8)    0.38268(8)   Biso  1.000000 C
   C2         1.0     0.42512(8)    0.38268(8)    0.28451(8)   Biso  1.000000 C
   C2         1.0     0.38268(8)    0.28451(8)    0.42512(8)   Biso  1.000000 C
   C2         1.0     0.57488(8)    0.21549(8)   -0.11732(8)   Biso  1.000000 C
   C2         1.0     0.61732(8)    0.07488(8)   -0.21549(8)   Biso  1.000000 C
   C2         1.0     0.57488(8)    0.11732(8)   -0.21549(8)   Biso  1.000000 C
   C2         1.0     0.61732(8)    0.21549(8)   -0.07488(8)   Biso  1.000000 C
   C2         1.0     0.42512(8)    0.21549(8)    0.11732(8)   Biso  1.000000 C
   C2         1.0     0.38268(8)    0.21549(8)    0.07488(8)   Biso  1.000000 C
   C2         1.0     0.38268(8)    0.07488(8)    0.21549(8)   Biso  1.000000 C
   C2         1.0     0.42512(8)    0.11732(8)    0.21549(8)   Biso  1.000000 C
   C2         1.0     0.61732(8)   -0.07488(8)    0.21549(8)   Biso  1.000000 C
   C2         1.0     0.57488(8)   -0.11732(8)    0.21549(8)   Biso  1.000000 C
   C2         1.0     0.71549(8)   -0.11732(8)    0.07488(8)   Biso  1.000000 C
   C2         1.0     0.71549(8)   -0.07488(8)    0.11732(8)   Biso  1.000000 C
   C2         1.0     0.71549(8)    0.11732(8)   -0.07488(8)   Biso  1.000000 C
   C2         1.0     0.71549(8)    0.07488(8)   -0.11732(8)   Biso  1.000000 C
   C2         1.0     0.92512(8)    0.21549(8)    0.38268(8)   Biso  1.000000 C
   C2         1.0     0.78451(8)    0.11732(8)    0.42512(8)   Biso  1.000000 C
   C2         1.0     0.78451(8)    0.07488(8)    0.38268(8)   Biso  1.000000 C
   C2         1.0     0.88268(8)    0.21549(8)    0.42512(8)   Biso  1.000000 C
   C2         1.0     0.78451(8)   -0.11732(8)    0.57488(8)   Biso  1.000000 C
   C2         1.0     0.78451(8)   -0.07488(8)    0.61732(8)   Biso  1.000000 C
   C2         1.0     0.92512(8)   -0.21549(8)    0.61732(8)   Biso  1.000000 C
   C2         1.0     0.88268(8)   -0.21549(8)    0.57488(8)   Biso  1.000000 C
   C2         1.0     1.07488(8)   -0.21549(8)    0.38268(8)   Biso  1.000000 C
   C2         1.0     1.11732(8)   -0.21549(8)    0.42512(8)   Biso  1.000000 C
   C2         1.0     1.11732(8)   -0.07488(8)    0.28451(8)   Biso  1.000000 C
   C2         1.0     1.07488(8)   -0.11732(8)    0.28451(8)   Biso  1.000000 C
   C2         1.0     0.88268(8)    0.07488(8)    0.28451(8)   Biso  1.000000 C
   C2         1.0     0.92512(8)    0.11732(8)    0.28451(8)   Biso  1.000000 C
   C2         1.0     1.11732(8)    0.42512(8)   -0.21549(8)   Biso  1.000000 C
   C2         1.0     1.21549(8)    0.38268(8)   -0.07488(8)   Biso  1.000000 C
   C2         1.0     1.21549(8)    0.42512(8)   -0.11732(8)   Biso  1.000000 C
   C2         1.0     1.07488(8)    0.38268(8)   -0.21549(8)   Biso  1.000000 C
   C2         1.0     0.92512(8)    0.28451(8)    0.11732(8)   Biso  1.000000 C
   C2         1.0     0.88268(8)    0.28451(8)    0.07488(8)   Biso  1.000000 C
   C2         1.0     1.07488(8)    0.28451(8)   -0.11732(8)   Biso  1.000000 C
   C2         1.0     1.11732(8)    0.28451(8)   -0.07488(8)   Biso  1.000000 C
   C2         1.0     0.88268(8)    0.57488(8)   -0.21549(8)   Biso  1.000000 C
   C2         1.0     0.92512(8)    0.61732(8)   -0.21549(8)   Biso  1.000000 C
   C2         1.0     0.78451(8)    0.61732(8)   -0.07488(8)   Biso  1.000000 C
   C2         1.0     0.78451(8)    0.57488(8)   -0.11732(8)   Biso  1.000000 C
   C2         1.0     0.78451(8)    0.38268(8)    0.07488(8)   Biso  1.000000 C
   C2         1.0     0.78451(8)    0.42512(8)    0.11732(8)   Biso  1.000000 C
   C2         1.0     0.61732(8)    0.42512(8)    0.28451(8)   Biso  1.000000 C
   C2         1.0     0.71549(8)    0.38268(8)    0.42512(8)   Biso  1.000000 C
   C2         1.0     0.71549(8)    0.42512(8)    0.38268(8)   Biso  1.000000 C
   C2         1.0     0.57488(8)    0.38268(8)    0.28451(8)   Biso  1.000000 C
   C2         1.0     0.42512(8)    0.28451(8)    0.61732(8)   Biso  1.000000 C
   C2         1.0     0.38268(8)    0.42512(8)    0.71549(8)   Biso  1.000000 C
   C2         1.0     0.42512(8)    0.38268(8)    0.71549(8)   Biso  1.000000 C
   C2         1.0     0.38268(8)    0.28451(8)    0.57488(8)   Biso  1.000000 C
   C2         1.0     0.42512(8)    0.71549(8)    0.38268(8)   Biso  1.000000 C
   C2         1.0     0.28451(8)    0.61732(8)    0.42512(8)   Biso  1.000000 C
   C2         1.0     0.28451(8)    0.57488(8)    0.38268(8)   Biso  1.000000 C
   C2         1.0     0.38268(8)    0.71549(8)    0.42512(8)   Biso  1.000000 C
   C2         1.0     0.57488(8)    0.28451(8)    0.38268(8)   Biso  1.000000 C
   C2         1.0     0.61732(8)    0.28451(8)    0.42512(8)   Biso  1.000000 C
   C2         1.0     0.38268(8)    0.57488(8)    0.28451(8)   Biso  1.000000 C
   C2         1.0     0.42512(8)    0.61732(8)    0.28451(8)   Biso  1.000000 C
   C2         1.0     0.28451(8)    0.38268(8)    0.57488(8)   Biso  1.000000 C
   C2         1.0     0.28451(8)    0.42512(8)    0.61732(8)   Biso  1.000000 C
   C2         1.0     0.42512(8)    0.21549(8)   -0.11732(8)   Biso  1.000000 C
   C2         1.0     0.38268(8)    0.21549(8)   -0.07488(8)   Biso  1.000000 C
   C2         1.0     0.78451(8)    0.11732(8)    0.57488(8)   Biso  1.000000 C
   C2         1.0     0.78451(8)    0.07488(8)    0.61732(8)   Biso  1.000000 C
   C2         1.0     1.11732(8)    0.57488(8)   -0.21549(8)   Biso  1.000000 C
   C2         1.0     1.07488(8)    0.61732(8)   -0.21549(8)   Biso  1.000000 C
   C2         1.0     0.71549(8)   -0.11732(8)   -0.07488(8)   Biso  1.000000 C
   C2         1.0     0.71549(8)   -0.07488(8)   -0.11732(8)   Biso  1.000000 C
   C2         1.0     1.11732(8)    0.07488(8)    0.28451(8)   Biso  1.000000 C
   C2         1.0     1.07488(8)    0.11732(8)    0.28451(8)   Biso  1.000000 C
   C2         1.0     1.07488(8)    0.28451(8)    0.11732(8)   Biso  1.000000 C
   C2         1.0     1.11732(8)    0.28451(8)    0.07488(8)   Biso  1.000000 C
   C3         1.0     0.58733(10)   0.24650(10)   0.12917(10)  Biso  1.000000 C
   C3         1.0     0.62917(10)   0.08733(10)   0.24650(10)  Biso  1.000000 C
   C3         1.0     0.74650(10)   0.12917(10)   0.08733(10)  Biso  1.000000 C
   C3         1.0     0.74650(10)   0.08733(10)   0.12917(10)  Biso  1.000000 C
   C3         1.0     0.58733(10)   0.12917(10)   0.24650(10)  Biso  1.000000 C
   C3         1.0     0.62917(10)   0.24650(10)   0.08733(10)  Biso  1.000000 C
   C3         1.0     0.91267(10)  -0.24650(10)   0.37083(10)  Biso  1.000000 C
   C3         1.0     0.87083(10)  -0.08733(10)   0.25350(10)  Biso  1.000000 C
   C3         1.0     0.75350(10)  -0.12917(10)   0.41267(10)  Biso  1.000000 C
   C3         1.0     0.75350(10)  -0.08733(10)   0.37083(10)  Biso  1.000000 C
   C3         1.0     0.91267(10)  -0.12917(10)   0.25350(10)  Biso  1.000000 C
   C3         1.0     0.87083(10)  -0.24650(10)   0.41267(10)  Biso  1.000000 C
   C3         1.0     0.91267(10)   0.25350(10)  -0.12917(10)  Biso  1.000000 C
   C3         1.0     0.87083(10)   0.41267(10)  -0.24650(10)  Biso  1.000000 C
   C3         1.0     0.75350(10)   0.37083(10)  -0.08733(10)  Biso  1.000000 C
   C3         1.0     0.75350(10)   0.41267(10)  -0.12917(10)  Biso  1.000000 C
   C3         1.0     0.91267(10)   0.37083(10)  -0.24650(10)  Biso  1.000000 C
   C3         1.0     0.87083(10)   0.25350(10)  -0.08733(10)  Biso  1.000000 C
   C3         1.0     0.41267(10)   0.25350(10)   0.37083(10)  Biso  1.000000 C
   C3         1.0     0.37083(10)   0.41267(10)   0.25350(10)  Biso  1.000000 C
   C3         1.0     0.25350(10)   0.37083(10)   0.41267(10)  Biso  1.000000 C
   C3         1.0     0.25350(10)   0.41267(10)   0.37083(10)  Biso  1.000000 C
   C3         1.0     0.41267(10)   0.37083(10)   0.25350(10)  Biso  1.000000 C
   C3         1.0     0.37083(10)   0.25350(10)   0.41267(10)  Biso  1.000000 C
   C3         1.0     0.58733(10)   0.24650(10)  -0.12917(10)  Biso  1.000000 C
   C3         1.0     0.62917(10)   0.08733(10)  -0.24650(10)  Biso  1.000000 C
   C3         1.0     0.58733(10)   0.12917(10)  -0.24650(10)  Biso  1.000000 C
   C3         1.0     0.62917(10)   0.24650(10)  -0.08733(10)  Biso  1.000000 C
   C3         1.0     0.41267(10)   0.24650(10)   0.12917(10)  Biso  1.000000 C
   C3         1.0     0.37083(10)   0.24650(10)   0.08733(10)  Biso  1.000000 C
   C3         1.0     0.37083(10)   0.08733(10)   0.24650(10)  Biso  1.000000 C
   C3         1.0     0.41267(10)   0.12917(10)   0.24650(10)  Biso  1.000000 C
   C3         1.0     0.62917(10)  -0.08733(10)   0.24650(10)  Biso  1.000000 C
   C3         1.0     0.58733(10)  -0.12917(10)   0.24650(10)  Biso  1.000000 C
   C3         1.0     0.74650(10)  -0.12917(10)   0.08733(10)  Biso  1.000000 C
   C3         1.0     0.74650(10)  -0.08733(10)   0.12917(10)  Biso  1.000000 C
   C3         1.0     0.74650(10)   0.12917(10)  -0.08733(10)  Biso  1.000000 C
   C3         1.0     0.74650(10)   0.08733(10)  -0.12917(10)  Biso  1.000000 C
   C3         1.0     0.91267(10)   0.24650(10)   0.37083(10)  Biso  1.000000 C
   C3         1.0     0.75350(10)   0.12917(10)   0.41267(10)  Biso  1.000000 C
   C3         1.0     0.75350(10)   0.08733(10)   0.37083(10)  Biso  1.000000 C
   C3         1.0     0.87083(10)   0.24650(10)   0.41267(10)  Biso  1.000000 C
   C3         1.0     0.75350(10)  -0.12917(10)   0.58733(10)  Biso  1.000000 C
   C3         1.0     0.75350(10)  -0.08733(10)   0.62917(10)  Biso  1.000000 C
   C3         1.0     0.91267(10)  -0.24650(10)   0.62917(10)  Biso  1.000000 C
   C3         1.0     0.87083(10)  -0.24650(10)   0.58733(10)  Biso  1.000000 C
   C3         1.0     1.08733(10)  -0.24650(10)   0.37083(10)  Biso  1.000000 C
   C3         1.0     1.12917(10)  -0.24650(10)   0.41267(10)  Biso  1.000000 C
   C3         1.0     1.12917(10)  -0.08733(10)   0.25350(10)  Biso  1.000000 C
   C3         1.0     1.08733(10)  -0.12917(10)   0.25350(10)  Biso  1.000000 C
   C3         1.0     0.87083(10)   0.08733(10)   0.25350(10)  Biso  1.000000 C
   C3         1.0     0.91267(10)   0.12917(10)   0.25350(10)  Biso  1.000000 C
   C3         1.0     1.12917(10)   0.41267(10)  -0.24650(10)  Biso  1.000000 C
   C3         1.0     1.24650(10)   0.37083(10)  -0.08733(10)  Biso  1.000000 C
   C3         1.0     1.24650(10)   0.41267(10)  -0.12917(10)  Biso  1.000000 C
   C3         1.0     1.08733(10)   0.37083(10)  -0.24650(10)  Biso  1.000000 C
   C3         1.0     0.91267(10)   0.25350(10)   0.12917(10)  Biso  1.000000 C
   C3         1.0     0.87083(10)   0.25350(10)   0.08733(10)  Biso  1.000000 C
   C3         1.0     1.08733(10)   0.25350(10)  -0.12917(10)  Biso  1.000000 C
   C3         1.0     1.12917(10)   0.25350(10)  -0.08733(10)  Biso  1.000000 C
   C3         1.0     0.87083(10)   0.58733(10)  -0.24650(10)  Biso  1.000000 C
   C3         1.0     0.91267(10)   0.62917(10)  -0.24650(10)  Biso  1.000000 C
   C3         1.0     0.75350(10)   0.62917(10)  -0.08733(10)  Biso  1.000000 C
   C3         1.0     0.75350(10)   0.58733(10)  -0.12917(10)  Biso  1.000000 C
   C3         1.0     0.75350(10)   0.37083(10)   0.08733(10)  Biso  1.000000 C
   C3         1.0     0.75350(10)   0.41267(10)   0.12917(10)  Biso  1.000000 C
   C3         1.0     0.62917(10)   0.41267(10)   0.25350(10)  Biso  1.000000 C
   C3         1.0     0.74650(10)   0.37083(10)   0.41267(10)  Biso  1.000000 C
   C3         1.0     0.74650(10)   0.41267(10)   0.37083(10)  Biso  1.000000 C
   C3         1.0     0.58733(10)   0.37083(10)   0.25350(10)  Biso  1.000000 C
   C3         1.0     0.41267(10)   0.25350(10)   0.62917(10)  Biso  1.000000 C
   C3         1.0     0.37083(10)   0.41267(10)   0.74650(10)  Biso  1.000000 C
   C3         1.0     0.41267(10)   0.37083(10)   0.74650(10)  Biso  1.000000 C
   C3         1.0     0.37083(10)   0.25350(10)   0.58733(10)  Biso  1.000000 C
   C3         1.0     0.41267(10)   0.74650(10)   0.37083(10)  Biso  1.000000 C
   C3         1.0     0.25350(10)   0.62917(10)   0.41267(10)  Biso  1.000000 C
   C3         1.0     0.25350(10)   0.58733(10)   0.37083(10)  Biso  1.000000 C
   C3         1.0     0.37083(10)   0.74650(10)   0.41267(10)  Biso  1.000000 C
   C3         1.0     0.58733(10)   0.25350(10)   0.37083(10)  Biso  1.000000 C
   C3         1.0     0.62917(10)   0.25350(10)   0.41267(10)  Biso  1.000000 C
   C3         1.0     0.37083(10)   0.58733(10)   0.25350(10)  Biso  1.000000 C
   C3         1.0     0.41267(10)   0.62917(10)   0.25350(10)  Biso  1.000000 C
   C3         1.0     0.25350(10)   0.37083(10)   0.58733(10)  Biso  1.000000 C
   C3         1.0     0.25350(10)   0.41267(10)   0.62917(10)  Biso  1.000000 C
   C3         1.0     0.41267(10)   0.24650(10)  -0.12917(10)  Biso  1.000000 C
   C3         1.0     0.37083(10)   0.24650(10)  -0.08733(10)  Biso  1.000000 C
   C3         1.0     0.75350(10)   0.12917(10)   0.58733(10)  Biso  1.000000 C
   C3         1.0     0.75350(10)   0.08733(10)   0.62917(10)  Biso  1.000000 C
   C3         1.0     1.12917(10)   0.58733(10)  -0.24650(10)  Biso  1.000000 C
   C3         1.0     1.08733(10)   0.62917(10)  -0.24650(10)  Biso  1.000000 C
   C3         1.0     0.74650(10)  -0.12917(10)  -0.08733(10)  Biso  1.000000 C
   C3         1.0     0.74650(10)  -0.08733(10)  -0.12917(10)  Biso  1.000000 C
   C3         1.0     1.12917(10)   0.08733(10)   0.25350(10)  Biso  1.000000 C
   C3         1.0     1.08733(10)   0.12917(10)   0.25350(10)  Biso  1.000000 C
   C3         1.0     1.08733(10)   0.25350(10)   0.12917(10)  Biso  1.000000 C
   C3         1.0     1.12917(10)   0.25350(10)   0.08733(10)  Biso  1.000000 C
   C4         1.0     0.61436(14)   0.26151(14)   0.11436(14)  Biso  1.000000 C
   C4         1.0     0.61436(14)   0.11436(14)   0.26151(14)  Biso  1.000000 C
   C4         1.0     0.76151(14)   0.11436(14)   0.11436(14)  Biso  1.000000 C
   C4         1.0     0.88564(14)  -0.26151(14)   0.38564(14)  Biso  1.000000 C
   C4         1.0     0.88564(14)  -0.11436(14)   0.23849(14)  Biso  1.000000 C
   C4         1.0     0.73849(14)  -0.11436(14)   0.38564(14)  Biso  1.000000 C
   C4         1.0     0.88564(14)   0.23849(14)  -0.11436(14)  Biso  1.000000 C
   C4         1.0     0.88564(14)   0.38564(14)  -0.26151(14)  Biso  1.000000 C
   C4         1.0     0.73849(14)   0.38564(14)  -0.11436(14)  Biso  1.000000 C
   C4         1.0     0.38564(14)   0.23849(14)   0.38564(14)  Biso  1.000000 C
   C4         1.0     0.38564(14)   0.38564(14)   0.23849(14)  Biso  1.000000 C
   C4         1.0     0.23849(14)   0.38564(14)   0.38564(14)  Biso  1.000000 C
   C4         1.0     0.61436(14)   0.26151(14)  -0.11436(14)  Biso  1.000000 C
   C4         1.0     0.61436(14)   0.11436(14)  -0.26151(14)  Biso  1.000000 C
   C4         1.0     0.38564(14)   0.26151(14)   0.11436(14)  Biso  1.000000 C
   C4         1.0     0.38564(14)   0.11436(14)   0.26151(14)  Biso  1.000000 C
   C4         1.0     0.61436(14)  -0.11436(14)   0.26151(14)  Biso  1.000000 C
   C4         1.0     0.76151(14)  -0.11436(14)   0.11436(14)  Biso  1.000000 C
   C4         1.0     0.76151(14)   0.11436(14)  -0.11436(14)  Biso  1.000000 C
   C4         1.0     0.88564(14)   0.26151(14)   0.38564(14)  Biso  1.000000 C
   C4         1.0     0.73849(14)   0.11436(14)   0.38564(14)  Biso  1.000000 C
   C4         1.0     0.73849(14)  -0.11436(14)   0.61436(14)  Biso  1.000000 C
   C4         1.0     0.88564(14)  -0.26151(14)   0.61436(14)  Biso  1.000000 C
   C4         1.0     1.11436(14)  -0.26151(14)   0.38564(14)  Biso  1.000000 C
   C4         1.0     1.11436(14)  -0.11436(14)   0.23849(14)  Biso  1.000000 C
   C4         1.0     0.88564(14)   0.11436(14)   0.23849(14)  Biso  1.000000 C
   C4         1.0     1.11436(14)   0.38564(14)  -0.26151(14)  Biso  1.000000 C
   C4         1.0     1.26151(14)   0.38564(14)  -0.11436(14)  Biso  1.000000 C
   C4         1.0     0.88564(14)   0.23849(14)   0.11436(14)  Biso  1.000000 C
   C4         1.0     1.11436(14)   0.23849(14)  -0.11436(14)  Biso  1.000000 C
   C4         1.0     0.88564(14)   0.61436(14)  -0.26151(14)  Biso  1.000000 C
   C4         1.0     0.73849(14)   0.61436(14)  -0.11436(14)  Biso  1.000000 C
   C4         1.0     0.73849(14)   0.38564(14)   0.11436(14)  Biso  1.000000 C
   C4         1.0     0.61436(14)   0.38564(14)   0.23849(14)  Biso  1.000000 C
   C4         1.0     0.76151(14)   0.38564(14)   0.38564(14)  Biso  1.000000 C
   C4         1.0     0.38564(14)   0.23849(14)   0.61436(14)  Biso  1.000000 C
   C4         1.0     0.38564(14)   0.38564(14)   0.76151(14)  Biso  1.000000 C
   C4         1.0     0.38564(14)   0.76151(14)   0.38564(14)  Biso  1.000000 C
   C4         1.0     0.23849(14)   0.61436(14)   0.38564(14)  Biso  1.000000 C
   C4         1.0     0.61436(14)   0.23849(14)   0.38564(14)  Biso  1.000000 C
   C4         1.0     0.38564(14)   0.61436(14)   0.23849(14)  Biso  1.000000 C
   C4         1.0     0.23849(14)   0.38564(14)   0.61436(14)  Biso  1.000000 C
   C4         1.0     0.38564(14)   0.26151(14)  -0.11436(14)  Biso  1.000000 C
   C4         1.0     0.73849(14)   0.11436(14)   0.61436(14)  Biso  1.000000 C
   C4         1.0     1.11436(14)   0.61436(14)  -0.26151(14)  Biso  1.000000 C
   C4         1.0     0.76151(14)  -0.11436(14)  -0.11436(14)  Biso  1.000000 C
   C4         1.0     1.11436(14)   0.11436(14)   0.23849(14)  Biso  1.000000 C
   C4         1.0     1.11436(14)   0.23849(14)   0.11436(14)  Biso  1.000000 C
   C5         1.0     0.6273(2)     0.2953(2)     0.1273(2)    Biso  1.000000 C
   C5         1.0     0.6273(2)     0.1273(2)     0.2953(2)    Biso  1.000000 C
   C5         1.0     0.7953(2)     0.1273(2)     0.1273(2)    Biso  1.000000 C
   C5         1.0     0.8727(2)    -0.2953(2)     0.3727(2)    Biso  1.000000 C
   C5         1.0     0.8727(2)    -0.1273(2)     0.2047(2)    Biso  1.000000 C
   C5         1.0     0.7047(2)    -0.1273(2)     0.3727(2)    Biso  1.000000 C
   C5         1.0     0.8727(2)     0.2047(2)    -0.1273(2)    Biso  1.000000 C
   C5         1.0     0.8727(2)     0.3727(2)    -0.2953(2)    Biso  1.000000 C
   C5         1.0     0.7047(2)     0.3727(2)    -0.1273(2)    Biso  1.000000 C
   C5         1.0     0.3727(2)     0.2047(2)     0.3727(2)    Biso  1.000000 C
   C5         1.0     0.3727(2)     0.3727(2)     0.2047(2)    Biso  1.000000 C
   C5         1.0     0.2047(2)     0.3727(2)     0.3727(2)    Biso  1.000000 C
   C5         1.0     0.6273(2)     0.2953(2)    -0.1273(2)    Biso  1.000000 C
   C5         1.0     0.6273(2)     0.1273(2)    -0.2953(2)    Biso  1.000000 C
   C5         1.0     0.3727(2)     0.2953(2)     0.1273(2)    Biso  1.000000 C
   C5         1.0     0.3727(2)     0.1273(2)     0.2953(2)    Biso  1.000000 C
   C5         1.0     0.6273(2)    -0.1273(2)     0.2953(2)    Biso  1.000000 C
   C5         1.0     0.7953(2)    -0.1273(2)     0.1273(2)    Biso  1.000000 C
   C5         1.0     0.7953(2)     0.1273(2)    -0.1273(2)    Biso  1.000000 C
   C5         1.0     0.8727(2)     0.2953(2)     0.3727(2)    Biso  1.000000 C
   C5         1.0     0.7047(2)     0.1273(2)     0.3727(2)    Biso  1.000000 C
   C5         1.0     0.7047(2)    -0.1273(2)     0.6273(2)    Biso  1.000000 C
   C5         1.0     0.8727(2)    -0.2953(2)     0.6273(2)    Biso  1.000000 C
   C5         1.0     1.1273(2)    -0.2953(2)     0.3727(2)    Biso  1.000000 C
   C5         1.0     1.1273(2)    -0.1273(2)     0.2047(2)    Biso  1.000000 C
   C5         1.0     0.8727(2)     0.1273(2)     0.2047(2)    Biso  1.000000 C
   C5         1.0     1.1273(2)     0.3727(2)    -0.2953(2)    Biso  1.000000 C
   C5         1.0     1.2953(2)     0.3727(2)    -0.1273(2)    Biso  1.000000 C
   C5         1.0     0.8727(2)     0.2047(2)     0.1273(2)    Biso  1.000000 C
   C5         1.0     1.1273(2)     0.2047(2)    -0.1273(2)    Biso  1.000000 C
   C5         1.0     0.8727(2)     0.6273(2)    -0.2953(2)    Biso  1.000000 C
   C5         1.0     0.7047(2)     0.6273(2)    -0.1273(2)    Biso  1.000000 C
   C5         1.0     0.7047(2)     0.3727(2)     0.1273(2)    Biso  1.000000 C
   C5         1.0     0.6273(2)     0.3727(2)     0.2047(2)    Biso  1.000000 C
   C5         1.0     0.7953(2)     0.3727(2)     0.3727(2)    Biso  1.000000 C
   C5         1.0     0.3727(2)     0.2047(2)     0.6273(2)    Biso  1.000000 C
   C5         1.0     0.3727(2)     0.3727(2)     0.7953(2)    Biso  1.000000 C
   C5         1.0     0.3727(2)     0.7953(2)     0.3727(2)    Biso  1.000000 C
   C5         1.0     0.2047(2)     0.6273(2)     0.3727(2)    Biso  1.000000 C
   C5         1.0     0.6273(2)     0.2047(2)     0.3727(2)    Biso  1.000000 C
   C5         1.0     0.3727(2)     0.6273(2)     0.2047(2)    Biso  1.000000 C
   C5         1.0     0.2047(2)     0.3727(2)     0.6273(2)    Biso  1.000000 C
   C5         1.0     0.3727(2)     0.2953(2)    -0.1273(2)    Biso  1.000000 C
   C5         1.0     0.7047(2)     0.1273(2)     0.6273(2)    Biso  1.000000 C
   C5         1.0     1.1273(2)     0.6273(2)    -0.2953(2)    Biso  1.000000 C
   C5         1.0     0.7953(2)    -0.1273(2)    -0.1273(2)    Biso  1.000000 C
   C5         1.0     1.1273(2)     0.1273(2)     0.2047(2)    Biso  1.000000 C
   C5         1.0     1.1273(2)     0.2047(2)     0.1273(2)    Biso  1.000000 C
   C6         1.0     0.54641(8)    0.19799(8)    0.13477(8)   Biso  1.000000 C
   C6         1.0     0.63477(8)    0.04641(8)    0.19799(8)   Biso  1.000000 C
   C6         1.0     0.69799(8)    0.13477(8)    0.04641(8)   Biso  1.000000 C
   C6         1.0     0.69799(8)    0.04641(8)    0.13477(8)   Biso  1.000000 C
   C6         1.0     0.54641(8)    0.13477(8)    0.19799(8)   Biso  1.000000 C
   C6         1.0     0.63477(8)    0.19799(8)    0.04641(8)   Biso  1.000000 C
   C6         1.0     0.95359(8)   -0.19799(8)    0.36523(8)   Biso  1.000000 C
   C6         1.0     0.86523(8)   -0.04641(8)    0.30201(8)   Biso  1.000000 C
   C6         1.0     0.80201(8)   -0.13477(8)    0.45359(8)   Biso  1.000000 C
   C6         1.0     0.80201(8)   -0.04641(8)    0.36523(8)   Biso  1.000000 C
   C6         1.0     0.95359(8)   -0.13477(8)    0.30201(8)   Biso  1.000000 C
   C6         1.0     0.86523(8)   -0.19799(8)    0.45359(8)   Biso  1.000000 C
   C6         1.0     0.95359(8)    0.30201(8)   -0.13477(8)   Biso  1.000000 C
   C6         1.0     0.86523(8)    0.45359(8)   -0.19799(8)   Biso  1.000000 C
   C6         1.0     0.80201(8)    0.36523(8)   -0.04641(8)   Biso  1.000000 C
   C6         1.0     0.80201(8)    0.45359(8)   -0.13477(8)   Biso  1.000000 C
   C6         1.0     0.95359(8)    0.36523(8)   -0.19799(8)   Biso  1.000000 C
   C6         1.0     0.86523(8)    0.30201(8)   -0.04641(8)   Biso  1.000000 C
   C6         1.0     0.45359(8)    0.30201(8)    0.36523(8)   Biso  1.000000 C
   C6         1.0     0.36523(8)    0.45359(8)    0.30201(8)   Biso  1.000000 C
   C6         1.0     0.30201(8)    0.36523(8)    0.45359(8)   Biso  1.000000 C
   C6         1.0     0.30201(8)    0.45359(8)    0.36523(8)   Biso  1.000000 C
   C6         1.0     0.45359(8)    0.36523(8)    0.30201(8)   Biso  1.000000 C
   C6         1.0     0.36523(8)    0.30201(8)    0.45359(8)   Biso  1.000000 C
   C6         1.0     0.54641(8)    0.19799(8)   -0.13477(8)   Biso  1.000000 C
   C6         1.0     0.63477(8)    0.04641(8)   -0.19799(8)   Biso  1.000000 C
   C6         1.0     0.54641(8)    0.13477(8)   -0.19799(8)   Biso  1.000000 C
   C6         1.0     0.63477(8)    0.19799(8)   -0.04641(8)   Biso  1.000000 C
   C6         1.0     0.45359(8)    0.19799(8)    0.13477(8)   Biso  1.000000 C
   C6         1.0     0.36523(8)    0.19799(8)    0.04641(8)   Biso  1.000000 C
   C6         1.0     0.36523(8)    0.04641(8)    0.19799(8)   Biso  1.000000 C
   C6         1.0     0.45359(8)    0.13477(8)    0.19799(8)   Biso  1.000000 C
   C6         1.0     0.63477(8)   -0.04641(8)    0.19799(8)   Biso  1.000000 C
   C6         1.0     0.54641(8)   -0.13477(8)    0.19799(8)   Biso  1.000000 C
   C6         1.0     0.69799(8)   -0.13477(8)    0.04641(8)   Biso  1.000000 C
   C6         1.0     0.69799(8)   -0.04641(8)    0.13477(8)   Biso  1.000000 C
   C6         1.0     0.69799(8)    0.13477(8)   -0.04641(8)   Biso  1.000000 C
   C6         1.0     0.69799(8)    0.04641(8)   -0.13477(8)   Biso  1.000000 C
   C6         1.0     0.95359(8)    0.19799(8)    0.36523(8)   Biso  1.000000 C
   C6         1.0     0.80201(8)    0.13477(8)    0.45359(8)   Biso  1.000000 C
   C6         1.0     0.80201(8)    0.04641(8)    0.36523(8)   Biso  1.000000 C
   C6         1.0     0.86523(8)    0.19799(8)    0.45359(8)   Biso  1.000000 C
   C6         1.0     0.80201(8)   -0.13477(8)    0.54641(8)   Biso  1.000000 C
   C6         1.0     0.80201(8)   -0.04641(8)    0.63477(8)   Biso  1.000000 C
   C6         1.0     0.95359(8)   -0.19799(8)    0.63477(8)   Biso  1.000000 C
   C6         1.0     0.86523(8)   -0.19799(8)    0.54641(8)   Biso  1.000000 C
   C6         1.0     1.04641(8)   -0.19799(8)    0.36523(8)   Biso  1.000000 C
   C6         1.0     1.13477(8)   -0.19799(8)    0.45359(8)   Biso  1.000000 C
   C6         1.0     1.13477(8)   -0.04641(8)    0.30201(8)   Biso  1.000000 C
   C6         1.0     1.04641(8)   -0.13477(8)    0.30201(8)   Biso  1.000000 C
   C6         1.0     0.86523(8)    0.04641(8)    0.30201(8)   Biso  1.000000 C
   C6         1.0     0.95359(8)    0.13477(8)    0.30201(8)   Biso  1.000000 C
   C6         1.0     1.13477(8)    0.45359(8)   -0.19799(8)   Biso  1.000000 C
   C6         1.0     1.19799(8)    0.36523(8)   -0.04641(8)   Biso  1.000000 C
   C6         1.0     1.19799(8)    0.45359(8)   -0.13477(8)   Biso  1.000000 C
   C6         1.0     1.04641(8)    0.36523(8)   -0.19799(8)   Biso  1.000000 C
   C6         1.0     0.95359(8)    0.30201(8)    0.13477(8)   Biso  1.000000 C
   C6         1.0     0.86523(8)    0.30201(8)    0.04641(8)   Biso  1.000000 C
   C6         1.0     1.04641(8)    0.30201(8)   -0.13477(8)   Biso  1.000000 C
   C6         1.0     1.13477(8)    0.30201(8)   -0.04641(8)   Biso  1.000000 C
   C6         1.0     0.86523(8)    0.54641(8)   -0.19799(8)   Biso  1.000000 C
   C6         1.0     0.95359(8)    0.63477(8)   -0.19799(8)   Biso  1.000000 C
   C6         1.0     0.80201(8)    0.63477(8)   -0.04641(8)   Biso  1.000000 C
   C6         1.0     0.80201(8)    0.54641(8)   -0.13477(8)   Biso  1.000000 C
   C6         1.0     0.80201(8)    0.36523(8)    0.04641(8)   Biso  1.000000 C
   C6         1.0     0.80201(8)    0.45359(8)    0.13477(8)   Biso  1.000000 C
   C6         1.0     0.63477(8)    0.45359(8)    0.30201(8)   Biso  1.000000 C
   C6         1.0     0.69799(8)    0.36523(8)    0.45359(8)   Biso  1.000000 C
   C6         1.0     0.69799(8)    0.45359(8)    0.36523(8)   Biso  1.000000 C
   C6         1.0     0.54641(8)    0.36523(8)    0.30201(8)   Biso  1.000000 C
   C6         1.0     0.45359(8)    0.30201(8)    0.63477(8)   Biso  1.000000 C
   C6         1.0     0.36523(8)    0.45359(8)    0.69799(8)   Biso  1.000000 C
   C6         1.0     0.45359(8)    0.36523(8)    0.69799(8)   Biso  1.000000 C
   C6         1.0     0.36523(8)    0.30201(8)    0.54641(8)   Biso  1.000000 C
   C6         1.0     0.45359(8)    0.69799(8)    0.36523(8)   Biso  1.000000 C
   C6         1.0     0.30201(8)    0.63477(8)    0.45359(8)   Biso  1.000000 C
   C6         1.0     0.30201(8)    0.54641(8)    0.36523(8)   Biso  1.000000 C
   C6         1.0     0.36523(8)    0.69799(8)    0.45359(8)   Biso  1.000000 C
   C6         1.0     0.54641(8)    0.30201(8)    0.36523(8)   Biso  1.000000 C
   C6         1.0     0.63477(8)    0.30201(8)    0.45359(8)   Biso  1.000000 C
   C6         1.0     0.36523(8)    0.54641(8)    0.30201(8)   Biso  1.000000 C
   C6         1.0     0.45359(8)    0.63477(8)    0.30201(8)   Biso  1.000000 C
   C6         1.0     0.30201(8)    0.36523(8)    0.54641(8)   Biso  1.000000 C
   C6         1.0     0.30201(8)    0.45359(8)    0.63477(8)   Biso  1.000000 C
   C6         1.0     0.45359(8)    0.19799(8)   -0.13477(8)   Biso  1.000000 C
   C6         1.0     0.36523(8)    0.19799(8)   -0.04641(8)   Biso  1.000000 C
   C6         1.0     0.80201(8)    0.13477(8)    0.54641(8)   Biso  1.000000 C
   C6         1.0     0.80201(8)    0.04641(8)    0.63477(8)   Biso  1.000000 C
   C6         1.0     1.13477(8)    0.54641(8)   -0.19799(8)   Biso  1.000000 C
   C6         1.0     1.04641(8)    0.63477(8)   -0.19799(8)   Biso  1.000000 C
   C6         1.0     0.69799(8)   -0.13477(8)   -0.04641(8)   Biso  1.000000 C
   C6         1.0     0.69799(8)   -0.04641(8)   -0.13477(8)   Biso  1.000000 C
   C6         1.0     1.13477(8)    0.04641(8)    0.30201(8)   Biso  1.000000 C
   C6         1.0     1.04641(8)    0.13477(8)    0.30201(8)   Biso  1.000000 C
   C6         1.0     1.04641(8)    0.30201(8)    0.13477(8)   Biso  1.000000 C
   C6         1.0     1.13477(8)    0.30201(8)    0.04641(8)   Biso  1.000000 C
   C7         1.0     0.4916(5)     0.2859(7)     0.2384(7)    Biso  1.000000 C
   C7         1.0     0.4916(5)     0.2616(7)     0.2141(7)    Biso  1.000000 C
   C7         1.0     0.7616(7)     0.2141(7)    -0.0084(5)    Biso  1.000000 C
   C7         1.0     0.7859(7)     0.2384(7)    -0.0084(5)    Biso  1.000000 C
   C7         1.0     0.7141(7)    -0.2384(7)     0.5084(5)    Biso  1.000000 C
   C7         1.0     0.7141(7)     0.0084(5)     0.2616(7)    Biso  1.000000 C
   C7         1.0     0.7384(7)    -0.2141(7)     0.5084(5)    Biso  1.000000 C
   C7         1.0     0.7384(7)     0.0084(5)     0.2859(7)    Biso  1.000000 C
   C7         1.0     0.7616(7)     0.5084(5)    -0.2859(7)    Biso  1.000000 C
   C7         1.0     0.7859(7)     0.5084(5)    -0.2616(7)    Biso  1.000000 C
   C7         1.0     1.0084(5)     0.2859(7)    -0.2616(7)    Biso  1.000000 C
   C7         1.0     1.0084(5)     0.2616(7)    -0.2859(7)    Biso  1.000000 C
   C7         1.0     0.4916(5)     0.2384(7)    -0.2859(7)    Biso  1.000000 C
   C7         1.0     0.4916(5)     0.2141(7)    -0.2616(7)    Biso  1.000000 C
   C7         1.0     0.7141(7)     0.2384(7)     0.5084(5)    Biso  1.000000 C
   C7         1.0     0.7384(7)     0.2141(7)     0.5084(5)    Biso  1.000000 C
   C7         1.0     0.7616(7)     0.5084(5)     0.2859(7)    Biso  1.000000 C
   C7         1.0     0.7859(7)     0.5084(5)     0.2616(7)    Biso  1.000000 C
   C7         1.0     0.7616(7)     0.0084(5)    -0.2141(7)    Biso  1.000000 C
   C7         1.0     0.7859(7)     0.0084(5)    -0.2384(7)    Biso  1.000000 C
   C7         1.0     0.2859(7)     0.2616(7)     0.0084(5)    Biso  1.000000 C
   C7         1.0     0.2616(7)     0.2859(7)     0.0084(5)    Biso  1.000000 C
   C7         1.0     0.9916(5)     0.2859(7)     0.2616(7)    Biso  1.000000 C
   C7         1.0     0.9916(5)     0.2616(7)     0.2859(7)    Biso  1.000000 C
   C9         1.0     0.5340(5)     0.2562(5)     0.2681(5)    Biso  1.000000 C
   C9         1.0     0.5340(5)     0.2319(5)     0.2438(5)    Biso  1.000000 C
   C9         1.0     0.7319(5)     0.2438(5)     0.0340(5)    Biso  1.000000 C
   C9         1.0     0.7562(5)     0.2681(5)     0.0340(5)    Biso  1.000000 C
   C9         1.0     0.7438(5)    -0.2681(5)     0.4660(5)    Biso  1.000000 C
   C9         1.0     0.7438(5)    -0.0340(5)     0.2319(5)    Biso  1.000000 C
   C9         1.0     0.7681(5)    -0.2438(5)     0.4660(5)    Biso  1.000000 C
   C9         1.0     0.7681(5)    -0.0340(5)     0.2562(5)    Biso  1.000000 C
   C9         1.0     0.7319(5)     0.4660(5)    -0.2562(5)    Biso  1.000000 C
   C9         1.0     0.7562(5)     0.4660(5)    -0.2319(5)    Biso  1.000000 C
   C9         1.0     0.9660(5)     0.2562(5)    -0.2319(5)    Biso  1.000000 C
   C9         1.0     0.9660(5)     0.2319(5)    -0.2562(5)    Biso  1.000000 C
   C9         1.0     0.5340(5)     0.2681(5)    -0.2562(5)    Biso  1.000000 C
   C9         1.0     0.5340(5)     0.2438(5)    -0.2319(5)    Biso  1.000000 C
   C9         1.0     0.7438(5)     0.2681(5)     0.4660(5)    Biso  1.000000 C
   C9         1.0     0.7681(5)     0.2438(5)     0.4660(5)    Biso  1.000000 C
   C9         1.0     0.7319(5)     0.4660(5)     0.2562(5)    Biso  1.000000 C
   C9         1.0     0.7562(5)     0.4660(5)     0.2319(5)    Biso  1.000000 C
   C9         1.0     0.7319(5)    -0.0340(5)    -0.2438(5)    Biso  1.000000 C
   C9         1.0     0.7562(5)    -0.0340(5)    -0.2681(5)    Biso  1.000000 C
   C9         1.0     0.2562(5)     0.2319(5)    -0.0340(5)    Biso  1.000000 C
   C9         1.0     0.2319(5)     0.2562(5)    -0.0340(5)    Biso  1.000000 C
   C9         1.0     1.0340(5)     0.2562(5)     0.2319(5)    Biso  1.000000 C
   C9         1.0     1.0340(5)     0.2319(5)     0.2562(5)    Biso  1.000000 C
   C11        1.0     0.4764(5)     0.2448(5)     0.2788(5)    Biso  1.000000 C
   C11        1.0     0.4764(5)     0.2212(5)     0.2552(5)    Biso  1.000000 C
   C11        1.0     0.7212(5)     0.2552(5)    -0.0236(5)    Biso  1.000000 C
   C11        1.0     0.7448(5)     0.2788(5)    -0.0236(5)    Biso  1.000000 C
   C11        1.0     0.7552(5)    -0.2788(5)     0.5236(5)    Biso  1.000000 C
   C11        1.0     0.7552(5)     0.0236(5)     0.2212(5)    Biso  1.000000 C
   C11        1.0     0.7788(5)    -0.2552(5)     0.5236(5)    Biso  1.000000 C
   C11        1.0     0.7788(5)     0.0236(5)     0.2448(5)    Biso  1.000000 C
   C11        1.0     0.7212(5)     0.5236(5)    -0.2448(5)    Biso  1.000000 C
   C11        1.0     0.7448(5)     0.5236(5)    -0.2212(5)    Biso  1.000000 C
   C11        1.0     1.0236(5)     0.2448(5)    -0.2212(5)    Biso  1.000000 C
   C11        1.0     1.0236(5)     0.2212(5)    -0.2448(5)    Biso  1.000000 C
   C11        1.0     0.4764(5)     0.2788(5)    -0.2448(5)    Biso  1.000000 C
   C11        1.0     0.4764(5)     0.2552(5)    -0.2212(5)    Biso  1.000000 C
   C11        1.0     0.7552(5)     0.2788(5)     0.5236(5)    Biso  1.000000 C
   C11        1.0     0.7788(5)     0.2552(5)     0.5236(5)    Biso  1.000000 C
   C11        1.0     0.7212(5)     0.5236(5)     0.2448(5)    Biso  1.000000 C
   C11        1.0     0.7448(5)     0.5236(5)     0.2212(5)    Biso  1.000000 C
   C11        1.0     0.7212(5)     0.0236(5)    -0.2552(5)    Biso  1.000000 C
   C11        1.0     0.7448(5)     0.0236(5)    -0.2788(5)    Biso  1.000000 C
   C11        1.0     0.2448(5)     0.2212(5)     0.0236(5)    Biso  1.000000 C
   C11        1.0     0.2212(5)     0.2448(5)     0.0236(5)    Biso  1.000000 C
   C11        1.0     0.9764(5)     0.2448(5)     0.2212(5)    Biso  1.000000 C
   C11        1.0     0.9764(5)     0.2212(5)     0.2448(5)    Biso  1.000000 C
   H1         1.0     0.581500      0.180800      0.081500     Biso  1.000000 H
   H1         1.0     0.581500      0.081500      0.180800     Biso  1.000000 H
   H1         1.0     0.680800      0.081500      0.081500     Biso  1.000000 H
   H1         1.0     0.918500     -0.180800      0.418500     Biso  1.000000 H
   H1         1.0     0.918500     -0.081500      0.319200     Biso  1.000000 H
   H1         1.0     0.819200     -0.081500      0.418500     Biso  1.000000 H
   H1         1.0     0.918500      0.319200     -0.081500     Biso  1.000000 H
   H1         1.0     0.918500      0.418500     -0.180800     Biso  1.000000 H
   H1         1.0     0.819200      0.418500     -0.081500     Biso  1.000000 H
   H1         1.0     0.418500      0.319200      0.418500     Biso  1.000000 H
   H1         1.0     0.418500      0.418500      0.319200     Biso  1.000000 H
   H1         1.0     0.319200      0.418500      0.418500     Biso  1.000000 H
   H1         1.0     0.581500      0.180800     -0.081500     Biso  1.000000 H
   H1         1.0     0.581500      0.081500     -0.180800     Biso  1.000000 H
   H1         1.0     0.418500      0.180800      0.081500     Biso  1.000000 H
   H1         1.0     0.418500      0.081500      0.180800     Biso  1.000000 H
   H1         1.0     0.581500     -0.081500      0.180800     Biso  1.000000 H
   H1         1.0     0.680800     -0.081500      0.081500     Biso  1.000000 H
   H1         1.0     0.680800      0.081500     -0.081500     Biso  1.000000 H
   H1         1.0     0.918500      0.180800      0.418500     Biso  1.000000 H
   H1         1.0     0.819200      0.081500      0.418500     Biso  1.000000 H
   H1         1.0     0.819200     -0.081500      0.581500     Biso  1.000000 H
   H1         1.0     0.918500     -0.180800      0.581500     Biso  1.000000 H
   H1         1.0     1.081500     -0.180800      0.418500     Biso  1.000000 H
   H1         1.0     1.081500     -0.081500      0.319200     Biso  1.000000 H
   H1         1.0     0.918500      0.081500      0.319200     Biso  1.000000 H
   H1         1.0     1.081500      0.418500     -0.180800     Biso  1.000000 H
   H1         1.0     1.180800      0.418500     -0.081500     Biso  1.000000 H
   H1         1.0     0.918500      0.319200      0.081500     Biso  1.000000 H
   H1         1.0     1.081500      0.319200     -0.081500     Biso  1.000000 H
   H1         1.0     0.918500      0.581500     -0.180800     Biso  1.000000 H
   H1         1.0     0.819200      0.581500     -0.081500     Biso  1.000000 H
   H1         1.0     0.819200      0.418500      0.081500     Biso  1.000000 H
   H1         1.0     0.581500      0.418500      0.319200     Biso  1.000000 H
   H1         1.0     0.680800      0.418500      0.418500     Biso  1.000000 H
   H1         1.0     0.418500      0.319200      0.581500     Biso  1.000000 H
   H1         1.0     0.418500      0.418500      0.680800     Biso  1.000000 H
   H1         1.0     0.418500      0.680800      0.418500     Biso  1.000000 H
   H1         1.0     0.319200      0.581500      0.418500     Biso  1.000000 H
   H1         1.0     0.581500      0.319200      0.418500     Biso  1.000000 H
   H1         1.0     0.418500      0.581500      0.319200     Biso  1.000000 H
   H1         1.0     0.319200      0.418500      0.581500     Biso  1.000000 H
   H1         1.0     0.418500      0.180800     -0.081500     Biso  1.000000 H
   H1         1.0     0.819200      0.081500      0.581500     Biso  1.000000 H
   H1         1.0     1.081500      0.581500     -0.180800     Biso  1.000000 H
   H1         1.0     0.680800     -0.081500     -0.081500     Biso  1.000000 H
   H1         1.0     1.081500      0.081500      0.319200     Biso  1.000000 H
   H1         1.0     1.081500      0.319200      0.081500     Biso  1.000000 H
   H3         1.0     0.577000      0.256800      0.147300     Biso  1.000000 H
   H3         1.0     0.647300      0.077000      0.256800     Biso  1.000000 H
   H3         1.0     0.756800      0.147300      0.077000     Biso  1.000000 H
   H3         1.0     0.756800      0.077000      0.147300     Biso  1.000000 H
   H3         1.0     0.577000      0.147300      0.256800     Biso  1.000000 H
   H3         1.0     0.647300      0.256800      0.077000     Biso  1.000000 H
   H3         1.0     0.923000     -0.256800      0.352700     Biso  1.000000 H
   H3         1.0     0.852700     -0.077000      0.243200     Biso  1.000000 H
   H3         1.0     0.743200     -0.147300      0.423000     Biso  1.000000 H
   H3         1.0     0.743200     -0.077000      0.352700     Biso  1.000000 H
   H3         1.0     0.923000     -0.147300      0.243200     Biso  1.000000 H
   H3         1.0     0.852700     -0.256800      0.423000     Biso  1.000000 H
   H3         1.0     0.923000      0.243200     -0.147300     Biso  1.000000 H
   H3         1.0     0.852700      0.423000     -0.256800     Biso  1.000000 H
   H3         1.0     0.743200      0.352700     -0.077000     Biso  1.000000 H
   H3         1.0     0.743200      0.423000     -0.147300     Biso  1.000000 H
   H3         1.0     0.923000      0.352700     -0.256800     Biso  1.000000 H
   H3         1.0     0.852700      0.243200     -0.077000     Biso  1.000000 H
   H3         1.0     0.423000      0.243200      0.352700     Biso  1.000000 H
   H3         1.0     0.352700      0.423000      0.243200     Biso  1.000000 H
   H3         1.0     0.243200      0.352700      0.423000     Biso  1.000000 H
   H3         1.0     0.243200      0.423000      0.352700     Biso  1.000000 H
   H3         1.0     0.423000      0.352700      0.243200     Biso  1.000000 H
   H3         1.0     0.352700      0.243200      0.423000     Biso  1.000000 H
   H3         1.0     0.577000      0.256800     -0.147300     Biso  1.000000 H
   H3         1.0     0.647300      0.077000     -0.256800     Biso  1.000000 H
   H3         1.0     0.577000      0.147300     -0.256800     Biso  1.000000 H
   H3         1.0     0.647300      0.256800     -0.077000     Biso  1.000000 H
   H3         1.0     0.423000      0.256800      0.147300     Biso  1.000000 H
   H3         1.0     0.352700      0.256800      0.077000     Biso  1.000000 H
   H3         1.0     0.352700      0.077000      0.256800     Biso  1.000000 H
   H3         1.0     0.423000      0.147300      0.256800     Biso  1.000000 H
   H3         1.0     0.647300     -0.077000      0.256800     Biso  1.000000 H
   H3         1.0     0.577000     -0.147300      0.256800     Biso  1.000000 H
   H3         1.0     0.756800     -0.147300      0.077000     Biso  1.000000 H
   H3         1.0     0.756800     -0.077000      0.147300     Biso  1.000000 H
   H3         1.0     0.756800      0.147300     -0.077000     Biso  1.000000 H
   H3         1.0     0.756800      0.077000     -0.147300     Biso  1.000000 H
   H3         1.0     0.923000      0.256800      0.352700     Biso  1.000000 H
   H3         1.0     0.743200      0.147300      0.423000     Biso  1.000000 H
   H3         1.0     0.743200      0.077000      0.352700     Biso  1.000000 H
   H3         1.0     0.852700      0.256800      0.423000     Biso  1.000000 H
   H3         1.0     0.743200     -0.147300      0.577000     Biso  1.000000 H
   H3         1.0     0.743200     -0.077000      0.647300     Biso  1.000000 H
   H3         1.0     0.923000     -0.256800      0.647300     Biso  1.000000 H
   H3         1.0     0.852700     -0.256800      0.577000     Biso  1.000000 H
   H3         1.0     1.077000     -0.256800      0.352700     Biso  1.000000 H
   H3         1.0     1.147300     -0.256800      0.423000     Biso  1.000000 H
   H3         1.0     1.147300     -0.077000      0.243200     Biso  1.000000 H
   H3         1.0     1.077000     -0.147300      0.243200     Biso  1.000000 H
   H3         1.0     0.852700      0.077000      0.243200     Biso  1.000000 H
   H3         1.0     0.923000      0.147300      0.243200     Biso  1.000000 H
   H3         1.0     1.147300      0.423000     -0.256800     Biso  1.000000 H
   H3         1.0     1.256800      0.352700     -0.077000     Biso  1.000000 H
   H3         1.0     1.256800      0.423000     -0.147300     Biso  1.000000 H
   H3         1.0     1.077000      0.352700     -0.256800     Biso  1.000000 H
   H3         1.0     0.923000      0.243200      0.147300     Biso  1.000000 H
   H3         1.0     0.852700      0.243200      0.077000     Biso  1.000000 H
   H3         1.0     1.077000      0.243200     -0.147300     Biso  1.000000 H
   H3         1.0     1.147300      0.243200     -0.077000     Biso  1.000000 H
   H3         1.0     0.852700      0.577000     -0.256800     Biso  1.000000 H
   H3         1.0     0.923000      0.647300     -0.256800     Biso  1.000000 H
   H3         1.0     0.743200      0.647300     -0.077000     Biso  1.000000 H
   H3         1.0     0.743200      0.577000     -0.147300     Biso  1.000000 H
   H3         1.0     0.743200      0.352700      0.077000     Biso  1.000000 H
   H3         1.0     0.743200      0.423000      0.147300     Biso  1.000000 H
   H3         1.0     0.647300      0.423000      0.243200     Biso  1.000000 H
   H3         1.0     0.756800      0.352700      0.423000     Biso  1.000000 H
   H3         1.0     0.756800      0.423000      0.352700     Biso  1.000000 H
   H3         1.0     0.577000      0.352700      0.243200     Biso  1.000000 H
   H3         1.0     0.423000      0.243200      0.647300     Biso  1.000000 H
   H3         1.0     0.352700      0.423000      0.756800     Biso  1.000000 H
   H3         1.0     0.423000      0.352700      0.756800     Biso  1.000000 H
   H3         1.0     0.352700      0.243200      0.577000     Biso  1.000000 H
   H3         1.0     0.423000      0.756800      0.352700     Biso  1.000000 H
   H3         1.0     0.243200      0.647300      0.423000     Biso  1.000000 H
   H3         1.0     0.243200      0.577000      0.352700     Biso  1.000000 H
   H3         1.0     0.352700      0.756800      0.423000     Biso  1.000000 H
   H3         1.0     0.577000      0.243200      0.352700     Biso  1.000000 H
   H3         1.0     0.647300      0.243200      0.423000     Biso  1.000000 H
   H3         1.0     0.352700      0.577000      0.243200     Biso  1.000000 H
   H3         1.0     0.423000      0.647300      0.243200     Biso  1.000000 H
   H3         1.0     0.243200      0.352700      0.577000     Biso  1.000000 H
   H3         1.0     0.243200      0.423000      0.647300     Biso  1.000000 H
   H3         1.0     0.423000      0.256800     -0.147300     Biso  1.000000 H
   H3         1.0     0.352700      0.256800     -0.077000     Biso  1.000000 H
   H3         1.0     0.743200      0.147300      0.577000     Biso  1.000000 H
   H3         1.0     0.743200      0.077000      0.647300     Biso  1.000000 H
   H3         1.0     1.147300      0.577000     -0.256800     Biso  1.000000 H
   H3         1.0     1.077000      0.647300     -0.256800     Biso  1.000000 H
   H3         1.0     0.756800     -0.147300     -0.077000     Biso  1.000000 H
   H3         1.0     0.756800     -0.077000     -0.147300     Biso  1.000000 H
   H3         1.0     1.147300      0.077000      0.243200     Biso  1.000000 H
   H3         1.0     1.077000      0.147300      0.243200     Biso  1.000000 H
   H3         1.0     1.077000      0.243200      0.147300     Biso  1.000000 H
   H3         1.0     1.147300      0.243200      0.077000     Biso  1.000000 H
   H5A        1.0     0.614200      0.302200      0.146200     Biso  1.000000 H
   H5A        1.0     0.646200      0.114200      0.302200     Biso  1.000000 H
   H5A        1.0     0.802200      0.146200      0.114200     Biso  1.000000 H
   H5A        1.0     0.885800     -0.302200      0.353800     Biso  1.000000 H
   H5A        1.0     0.853800     -0.114200      0.197800     Biso  1.000000 H
   H5A        1.0     0.697800     -0.146200      0.385800     Biso  1.000000 H
   H5A        1.0     0.885800      0.197800     -0.146200     Biso  1.000000 H
   H5A        1.0     0.853800      0.385800     -0.302200     Biso  1.000000 H
   H5A        1.0     0.697800      0.353800     -0.114200     Biso  1.000000 H
   H5A        1.0     0.353800      0.385800      0.197800     Biso  1.000000 H
   H5A        1.0     0.197800      0.385800      0.353800     Biso  1.000000 H
   H5A        1.0     0.353800      0.197800      0.385800     Biso  1.000000 H
   H5A        1.0     0.614200      0.302200     -0.146200     Biso  1.000000 H
   H5A        1.0     0.646200      0.114200     -0.302200     Biso  1.000000 H
   H5A        1.0     0.385800      0.302200      0.146200     Biso  1.000000 H
   H5A        1.0     0.385800      0.146200      0.302200     Biso  1.000000 H
   H5A        1.0     0.646200     -0.114200      0.302200     Biso  1.000000 H
   H5A        1.0     0.802200     -0.146200      0.114200     Biso  1.000000 H
   H5A        1.0     0.802200      0.146200     -0.114200     Biso  1.000000 H
   H5A        1.0     0.885800      0.302200      0.353800     Biso  1.000000 H
   H5A        1.0     0.697800      0.146200      0.385800     Biso  1.000000 H
   H5A        1.0     0.697800     -0.114200      0.646200     Biso  1.000000 H
   H5A        1.0     0.853800     -0.302200      0.614200     Biso  1.000000 H
   H5A        1.0     1.114200     -0.302200      0.353800     Biso  1.000000 H
   H5A        1.0     1.146200     -0.114200      0.197800     Biso  1.000000 H
   H5A        1.0     0.853800      0.114200      0.197800     Biso  1.000000 H
   H5A        1.0     1.146200      0.385800     -0.302200     Biso  1.000000 H
   H5A        1.0     1.302200      0.353800     -0.114200     Biso  1.000000 H
   H5A        1.0     0.885800      0.197800      0.146200     Biso  1.000000 H
   H5A        1.0     1.114200      0.197800     -0.146200     Biso  1.000000 H
   H5A        1.0     0.885800      0.646200     -0.302200     Biso  1.000000 H
   H5A        1.0     0.697800      0.646200     -0.114200     Biso  1.000000 H
   H5A        1.0     0.697800      0.353800      0.114200     Biso  1.000000 H
   H5A        1.0     0.646200      0.385800      0.197800     Biso  1.000000 H
   H5A        1.0     0.802200      0.353800      0.385800     Biso  1.000000 H
   H5A        1.0     0.385800      0.197800      0.646200     Biso  1.000000 H
   H5A        1.0     0.353800      0.385800      0.802200     Biso  1.000000 H
   H5A        1.0     0.385800      0.802200      0.353800     Biso  1.000000 H
   H5A        1.0     0.197800      0.646200      0.385800     Biso  1.000000 H
   H5A        1.0     0.614200      0.197800      0.353800     Biso  1.000000 H
   H5A        1.0     0.353800      0.614200      0.197800     Biso  1.000000 H
   H5A        1.0     0.197800      0.353800      0.614200     Biso  1.000000 H
   H5A        1.0     0.385800      0.302200     -0.146200     Biso  1.000000 H
   H5A        1.0     0.697800      0.146200      0.614200     Biso  1.000000 H
   H5A        1.0     1.146200      0.614200     -0.302200     Biso  1.000000 H
   H5A        1.0     0.802200     -0.114200     -0.146200     Biso  1.000000 H
   H5A        1.0     1.114200      0.146200      0.197800     Biso  1.000000 H
   H5A        1.0     1.146200      0.197800      0.114200     Biso  1.000000 H
   H5B        1.0     0.650300      0.293100      0.133900     Biso  1.000000 H
   H5B        1.0     0.633900      0.150300      0.293100     Biso  1.000000 H
   H5B        1.0     0.793100      0.133900      0.150300     Biso  1.000000 H
   H5B        1.0     0.849700     -0.293100      0.366100     Biso  1.000000 H
   H5B        1.0     0.866100     -0.150300      0.206900     Biso  1.000000 H
   H5B        1.0     0.706900     -0.133900      0.349700     Biso  1.000000 H
   H5B        1.0     0.849700      0.206900     -0.133900     Biso  1.000000 H
   H5B        1.0     0.866100      0.349700     -0.293100     Biso  1.000000 H
   H5B        1.0     0.706900      0.366100     -0.150300     Biso  1.000000 H
   H5B        1.0     0.366100      0.349700      0.206900     Biso  1.000000 H
   H5B        1.0     0.206900      0.349700      0.366100     Biso  1.000000 H
   H5B        1.0     0.366100      0.206900      0.349700     Biso  1.000000 H
   H5B        1.0     0.650300      0.293100     -0.133900     Biso  1.000000 H
   H5B        1.0     0.633900      0.150300     -0.293100     Biso  1.000000 H
   H5B        1.0     0.349700      0.293100      0.133900     Biso  1.000000 H
   H5B        1.0     0.349700      0.133900      0.293100     Biso  1.000000 H
   H5B        1.0     0.633900     -0.150300      0.293100     Biso  1.000000 H
   H5B        1.0     0.793100     -0.133900      0.150300     Biso  1.000000 H
   H5B        1.0     0.793100      0.133900     -0.150300     Biso  1.000000 H
   H5B        1.0     0.849700      0.293100      0.366100     Biso  1.000000 H
   H5B        1.0     0.706900      0.133900      0.349700     Biso  1.000000 H
   H5B        1.0     0.706900     -0.150300      0.633900     Biso  1.000000 H
   H5B        1.0     0.866100     -0.293100      0.650300     Biso  1.000000 H
   H5B        1.0     1.150300     -0.293100      0.366100     Biso  1.000000 H
   H5B        1.0     1.133900     -0.150300      0.206900     Biso  1.000000 H
   H5B        1.0     0.866100      0.150300      0.206900     Biso  1.000000 H
   H5B        1.0     1.133900      0.349700     -0.293100     Biso  1.000000 H
   H5B        1.0     1.293100      0.366100     -0.150300     Biso  1.000000 H
   H5B        1.0     0.849700      0.206900      0.133900     Biso  1.000000 H
   H5B        1.0     1.150300      0.206900     -0.133900     Biso  1.000000 H
   H5B        1.0     0.849700      0.633900     -0.293100     Biso  1.000000 H
   H5B        1.0     0.706900      0.633900     -0.150300     Biso  1.000000 H
   H5B        1.0     0.706900      0.366100      0.150300     Biso  1.000000 H
   H5B        1.0     0.633900      0.349700      0.206900     Biso  1.000000 H
   H5B        1.0     0.793100      0.366100      0.349700     Biso  1.000000 H
   H5B        1.0     0.349700      0.206900      0.633900     Biso  1.000000 H
   H5B        1.0     0.366100      0.349700      0.793100     Biso  1.000000 H
   H5B        1.0     0.349700      0.793100      0.366100     Biso  1.000000 H
   H5B        1.0     0.206900      0.633900      0.349700     Biso  1.000000 H
   H5B        1.0     0.650300      0.206900      0.366100     Biso  1.000000 H
   H5B        1.0     0.366100      0.650300      0.206900     Biso  1.000000 H
   H5B        1.0     0.206900      0.366100      0.650300     Biso  1.000000 H
   H5B        1.0     0.349700      0.293100     -0.133900     Biso  1.000000 H
   H5B        1.0     0.706900      0.133900      0.650300     Biso  1.000000 H
   H5B        1.0     1.133900      0.650300     -0.293100     Biso  1.000000 H
   H5B        1.0     0.793100     -0.150300     -0.133900     Biso  1.000000 H
   H5B        1.0     1.150300      0.133900      0.206900     Biso  1.000000 H
   H5B        1.0     1.133900      0.206900      0.150300     Biso  1.000000 H
   H5C        1.0     0.625500      0.311800      0.109900     Biso  1.000000 H
   H5C        1.0     0.609900      0.125500      0.311800     Biso  1.000000 H
   H5C        1.0     0.811800      0.109900      0.125500     Biso  1.000000 H
   H5C        1.0     0.874500     -0.311800      0.390100     Biso  1.000000 H
   H5C        1.0     0.890100     -0.125500      0.188200     Biso  1.000000 H
   H5C        1.0     0.688200     -0.109900      0.374500     Biso  1.000000 H
   H5C        1.0     0.874500      0.188200     -0.109900     Biso  1.000000 H
   H5C        1.0     0.890100      0.374500     -0.311800     Biso  1.000000 H
   H5C        1.0     0.688200      0.390100     -0.125500     Biso  1.000000 H
   H5C        1.0     0.390100      0.374500      0.188200     Biso  1.000000 H
   H5C        1.0     0.188200      0.374500      0.390100     Biso  1.000000 H
   H5C        1.0     0.390100      0.188200      0.374500     Biso  1.000000 H
   H5C        1.0     0.625500      0.311800     -0.109900     Biso  1.000000 H
   H5C        1.0     0.609900      0.125500     -0.311800     Biso  1.000000 H
   H5C        1.0     0.374500      0.311800      0.109900     Biso  1.000000 H
   H5C        1.0     0.374500      0.109900      0.311800     Biso  1.000000 H
   H5C        1.0     0.609900     -0.125500      0.311800     Biso  1.000000 H
   H5C        1.0     0.811800     -0.109900      0.125500     Biso  1.000000 H
   H5C        1.0     0.811800      0.109900     -0.125500     Biso  1.000000 H
   H5C        1.0     0.874500      0.311800      0.390100     Biso  1.000000 H
   H5C        1.0     0.688200      0.109900      0.374500     Biso  1.000000 H
   H5C        1.0     0.688200     -0.125500      0.609900     Biso  1.000000 H
   H5C        1.0     0.890100     -0.311800      0.625500     Biso  1.000000 H
   H5C        1.0     1.125500     -0.311800      0.390100     Biso  1.000000 H
   H5C        1.0     1.109900     -0.125500      0.188200     Biso  1.000000 H
   H5C        1.0     0.890100      0.125500      0.188200     Biso  1.000000 H
   H5C        1.0     1.109900      0.374500     -0.311800     Biso  1.000000 H
   H5C        1.0     1.311800      0.390100     -0.125500     Biso  1.000000 H
   H5C        1.0     0.874500      0.188200      0.109900     Biso  1.000000 H
   H5C        1.0     1.125500      0.188200     -0.109900     Biso  1.000000 H
   H5C        1.0     0.874500      0.609900     -0.311800     Biso  1.000000 H
   H5C        1.0     0.688200      0.609900     -0.125500     Biso  1.000000 H
   H5C        1.0     0.688200      0.390100      0.125500     Biso  1.000000 H
   H5C        1.0     0.609900      0.374500      0.188200     Biso  1.000000 H
   H5C        1.0     0.811800      0.390100      0.374500     Biso  1.000000 H
   H5C        1.0     0.374500      0.188200      0.609900     Biso  1.000000 H
   H5C        1.0     0.390100      0.374500      0.811800     Biso  1.000000 H
   H5C        1.0     0.374500      0.811800      0.390100     Biso  1.000000 H
   H5C        1.0     0.188200      0.609900      0.374500     Biso  1.000000 H
   H5C        1.0     0.625500      0.188200      0.390100     Biso  1.000000 H
   H5C        1.0     0.390100      0.625500      0.188200     Biso  1.000000 H
   H5C        1.0     0.188200      0.390100      0.625500     Biso  1.000000 H
   H5C        1.0     0.374500      0.311800     -0.109900     Biso  1.000000 H
   H5C        1.0     0.688200      0.109900      0.625500     Biso  1.000000 H
   H5C        1.0     1.109900      0.625500     -0.311800     Biso  1.000000 H
   H5C        1.0     0.811800     -0.125500     -0.109900     Biso  1.000000 H
   H5C        1.0     1.125500      0.109900      0.188200     Biso  1.000000 H
   H5C        1.0     1.109900      0.188200      0.125500     Biso  1.000000 H
   H7A        1.0     0.535300      0.243050      0.292650     Biso  1.000000 H
   H7A        1.0     0.464700      0.292650      0.243050     Biso  1.000000 H
   H7A        1.0     0.464700      0.256950      0.207350     Biso  1.000000 H
   H7A        1.0     0.756950      0.207350     -0.035300     Biso  1.000000 H
   H7A        1.0     0.535300      0.207350      0.256950     Biso  1.000000 H
   H7A        1.0     0.707350      0.256950      0.035300     Biso  1.000000 H
   H7A        1.0     0.743050      0.292650      0.035300     Biso  1.000000 H
   H7A        1.0     0.792650      0.243050     -0.035300     Biso  1.000000 H
   H7A        1.0     0.756950     -0.292650      0.464700     Biso  1.000000 H
   H7A        1.0     0.707350     -0.243050      0.535300     Biso  1.000000 H
   H7A        1.0     0.707350      0.035300      0.256950     Biso  1.000000 H
   H7A        1.0     0.756950     -0.035300      0.207350     Biso  1.000000 H
   H7A        1.0     0.792650     -0.035300      0.243050     Biso  1.000000 H
   H7A        1.0     0.743050     -0.207350      0.535300     Biso  1.000000 H
   H7A        1.0     0.743050      0.035300      0.292650     Biso  1.000000 H
   H7A        1.0     0.792650     -0.256950      0.464700     Biso  1.000000 H
   H7A        1.0     0.707350      0.464700     -0.243050     Biso  1.000000 H
   H7A        1.0     0.756950      0.535300     -0.292650     Biso  1.000000 H
   H7A        1.0     0.964700      0.243050     -0.207350     Biso  1.000000 H
   H7A        1.0     0.792650      0.535300     -0.256950     Biso  1.000000 H
   H7A        1.0     0.743050      0.464700     -0.207350     Biso  1.000000 H
   H7A        1.0     1.035300      0.292650     -0.256950     Biso  1.000000 H
   H7A        1.0     1.035300      0.256950     -0.292650     Biso  1.000000 H
   H7A        1.0     0.964700      0.207350     -0.243050     Biso  1.000000 H
   H7A        1.0     0.464700      0.243050     -0.292650     Biso  1.000000 H
   H7A        1.0     0.535300      0.292650     -0.243050     Biso  1.000000 H
   H7A        1.0     0.535300      0.256950     -0.207350     Biso  1.000000 H
   H7A        1.0     0.464700      0.207350     -0.256950     Biso  1.000000 H
   H7A        1.0     0.756950      0.292650      0.464700     Biso  1.000000 H
   H7A        1.0     0.707350      0.243050      0.535300     Biso  1.000000 H
   H7A        1.0     0.743050      0.207350      0.535300     Biso  1.000000 H
   H7A        1.0     0.792650      0.256950      0.464700     Biso  1.000000 H
   H7A        1.0     0.707350      0.464700      0.243050     Biso  1.000000 H
   H7A        1.0     0.756950      0.535300      0.292650     Biso  1.000000 H
   H7A        1.0     0.792650      0.535300      0.256950     Biso  1.000000 H
   H7A        1.0     0.743050      0.464700      0.207350     Biso  1.000000 H
   H7A        1.0     0.707350     -0.035300     -0.256950     Biso  1.000000 H
   H7A        1.0     0.756950      0.035300     -0.207350     Biso  1.000000 H
   H7A        1.0     0.792650      0.035300     -0.243050     Biso  1.000000 H
   H7A        1.0     0.743050     -0.035300     -0.292650     Biso  1.000000 H
   H7A        1.0     0.243050      0.207350     -0.035300     Biso  1.000000 H
   H7A        1.0     0.292650      0.256950      0.035300     Biso  1.000000 H
   H7A        1.0     0.256950      0.292650      0.035300     Biso  1.000000 H
   H7A        1.0     0.207350      0.243050     -0.035300     Biso  1.000000 H
   H7A        1.0     1.035300      0.243050      0.207350     Biso  1.000000 H
   H7A        1.0     0.964700      0.292650      0.256950     Biso  1.000000 H
   H7A        1.0     0.964700      0.256950      0.292650     Biso  1.000000 H
   H7A        1.0     1.035300      0.207350      0.243050     Biso  1.000000 H
   H7B        1.0     0.487350      0.233750      0.301850     Biso  1.000000 H
   H7B        1.0     0.512650      0.301850      0.233750     Biso  1.000000 H
   H7B        1.0     0.512650      0.266250      0.198150     Biso  1.000000 H
   H7B        1.0     0.766250      0.198150      0.012650     Biso  1.000000 H
   H7B        1.0     0.487350      0.198150      0.266250     Biso  1.000000 H
   H7B        1.0     0.698150      0.266250     -0.012650     Biso  1.000000 H
   H7B        1.0     0.733750      0.301850     -0.012650     Biso  1.000000 H
   H7B        1.0     0.801850      0.233750      0.012650     Biso  1.000000 H
   H7B        1.0     0.766250     -0.301850      0.512650     Biso  1.000000 H
   H7B        1.0     0.698150     -0.233750      0.487350     Biso  1.000000 H
   H7B        1.0     0.698150     -0.012650      0.266250     Biso  1.000000 H
   H7B        1.0     0.766250      0.012650      0.198150     Biso  1.000000 H
   H7B        1.0     0.801850      0.012650      0.233750     Biso  1.000000 H
   H7B        1.0     0.733750     -0.198150      0.487350     Biso  1.000000 H
   H7B        1.0     0.733750     -0.012650      0.301850     Biso  1.000000 H
   H7B        1.0     0.801850     -0.266250      0.512650     Biso  1.000000 H
   H7B        1.0     0.698150      0.512650     -0.233750     Biso  1.000000 H
   H7B        1.0     0.766250      0.487350     -0.301850     Biso  1.000000 H
   H7B        1.0     1.012650      0.233750     -0.198150     Biso  1.000000 H
   H7B        1.0     0.801850      0.487350     -0.266250     Biso  1.000000 H
   H7B        1.0     0.733750      0.512650     -0.198150     Biso  1.000000 H
   H7B        1.0     0.987350      0.301850     -0.266250     Biso  1.000000 H
   H7B        1.0     0.987350      0.266250     -0.301850     Biso  1.000000 H
   H7B        1.0     1.012650      0.198150     -0.233750     Biso  1.000000 H
   H7B        1.0     0.512650      0.233750     -0.301850     Biso  1.000000 H
   H7B        1.0     0.487350      0.301850     -0.233750     Biso  1.000000 H
   H7B        1.0     0.487350      0.266250     -0.198150     Biso  1.000000 H
   H7B        1.0     0.512650      0.198150     -0.266250     Biso  1.000000 H
   H7B        1.0     0.766250      0.301850      0.512650     Biso  1.000000 H
   H7B        1.0     0.698150      0.233750      0.487350     Biso  1.000000 H
   H7B        1.0     0.733750      0.198150      0.487350     Biso  1.000000 H
   H7B        1.0     0.801850      0.266250      0.512650     Biso  1.000000 H
   H7B        1.0     0.698150      0.512650      0.233750     Biso  1.000000 H
   H7B        1.0     0.766250      0.487350      0.301850     Biso  1.000000 H
   H7B        1.0     0.801850      0.487350      0.266250     Biso  1.000000 H
   H7B        1.0     0.733750      0.512650      0.198150     Biso  1.000000 H
   H7B        1.0     0.698150      0.012650     -0.266250     Biso  1.000000 H
   H7B        1.0     0.766250     -0.012650     -0.198150     Biso  1.000000 H
   H7B        1.0     0.801850     -0.012650     -0.233750     Biso  1.000000 H
   H7B        1.0     0.733750      0.012650     -0.301850     Biso  1.000000 H
   H7B        1.0     0.233750      0.198150      0.012650     Biso  1.000000 H
   H7B        1.0     0.301850      0.266250     -0.012650     Biso  1.000000 H
   H7B        1.0     0.266250      0.301850     -0.012650     Biso  1.000000 H
   H7B        1.0     0.198150      0.233750      0.012650     Biso  1.000000 H
   H7B        1.0     0.987350      0.233750      0.198150     Biso  1.000000 H
   H7B        1.0     1.012650      0.301850      0.266250     Biso  1.000000 H
   H7B        1.0     1.012650      0.266250      0.301850     Biso  1.000000 H
   H7B        1.0     0.987350      0.198150      0.233750     Biso  1.000000 H
   H9         1.0     0.451900      0.258600      0.277050     Biso  1.000000 H
   H9         1.0     0.548100      0.277050      0.258600     Biso  1.000000 H
   H9         1.0     0.548100      0.241400      0.222950     Biso  1.000000 H
   H9         1.0     0.741400      0.222950      0.048100     Biso  1.000000 H
   H9         1.0     0.451900      0.222950      0.241400     Biso  1.000000 H
   H9         1.0     0.722950      0.241400     -0.048100     Biso  1.000000 H
   H9         1.0     0.758600      0.277050     -0.048100     Biso  1.000000 H
   H9         1.0     0.777050      0.258600      0.048100     Biso  1.000000 H
   H9         1.0     0.741400     -0.277050      0.548100     Biso  1.000000 H
   H9         1.0     0.722950     -0.258600      0.451900     Biso  1.000000 H
   H9         1.0     0.722950     -0.048100      0.241400     Biso  1.000000 H
   H9         1.0     0.741400      0.048100      0.222950     Biso  1.000000 H
   H9         1.0     0.777050      0.048100      0.258600     Biso  1.000000 H
   H9         1.0     0.758600     -0.222950      0.451900     Biso  1.000000 H
   H9         1.0     0.758600     -0.048100      0.277050     Biso  1.000000 H
   H9         1.0     0.777050     -0.241400      0.548100     Biso  1.000000 H
   H9         1.0     0.722950      0.548100     -0.258600     Biso  1.000000 H
   H9         1.0     0.741400      0.451900     -0.277050     Biso  1.000000 H
   H9         1.0     1.048100      0.258600     -0.222950     Biso  1.000000 H
   H9         1.0     0.777050      0.451900     -0.241400     Biso  1.000000 H
   H9         1.0     0.758600      0.548100     -0.222950     Biso  1.000000 H
   H9         1.0     0.951900      0.277050     -0.241400     Biso  1.000000 H
   H9         1.0     0.951900      0.241400     -0.277050     Biso  1.000000 H
   H9         1.0     1.048100      0.222950     -0.258600     Biso  1.000000 H
   H9         1.0     0.548100      0.258600     -0.277050     Biso  1.000000 H
   H9         1.0     0.451900      0.277050     -0.258600     Biso  1.000000 H
   H9         1.0     0.451900      0.241400     -0.222950     Biso  1.000000 H
   H9         1.0     0.548100      0.222950     -0.241400     Biso  1.000000 H
   H9         1.0     0.741400      0.277050      0.548100     Biso  1.000000 H
   H9         1.0     0.722950      0.258600      0.451900     Biso  1.000000 H
   H9         1.0     0.758600      0.222950      0.451900     Biso  1.000000 H
   H9         1.0     0.777050      0.241400      0.548100     Biso  1.000000 H
   H9         1.0     0.722950      0.548100      0.258600     Biso  1.000000 H
   H9         1.0     0.741400      0.451900      0.277050     Biso  1.000000 H
   H9         1.0     0.777050      0.451900      0.241400     Biso  1.000000 H
   H9         1.0     0.758600      0.548100      0.222950     Biso  1.000000 H
   H9         1.0     0.722950      0.048100     -0.241400     Biso  1.000000 H
   H9         1.0     0.741400     -0.048100     -0.222950     Biso  1.000000 H
   H9         1.0     0.777050     -0.048100     -0.258600     Biso  1.000000 H
   H9         1.0     0.758600      0.048100     -0.277050     Biso  1.000000 H
   H9         1.0     0.258600      0.222950      0.048100     Biso  1.000000 H
   H9         1.0     0.277050      0.241400     -0.048100     Biso  1.000000 H
   H9         1.0     0.241400      0.277050     -0.048100     Biso  1.000000 H
   H9         1.0     0.222950      0.258600      0.048100     Biso  1.000000 H
   H9         1.0     0.951900      0.258600      0.222950     Biso  1.000000 H
   H9         1.0     1.048100      0.277050      0.241400     Biso  1.000000 H
   H9         1.0     1.048100      0.241400      0.277050     Biso  1.000000 H
   H9         1.0     0.951900      0.222950      0.258600     Biso  1.000000 H
   N1         1.0     0.5000(7)     0.2711(5)     0.2711(7)    Biso  1.000000 N
   N1         1.0     0.5000(7)     0.2289(5)     0.2289(7)    Biso  1.000000 N
   N1         1.0     0.7289(5)     0.2289(7)     0.0000(7)    Biso  1.000000 N
   N1         1.0     0.7711(5)     0.2711(7)     0.0000(7)    Biso  1.000000 N
   N1         1.0     0.7289(5)    -0.2711(7)     0.5000(7)    Biso  1.000000 N
   N1         1.0     0.7289(7)     0.0000(7)     0.2289(5)    Biso  1.000000 N
   N1         1.0     0.7711(7)     0.0000(7)     0.2711(5)    Biso  1.000000 N
   N1         1.0     0.7711(5)    -0.2289(7)     0.5000(7)    Biso  1.000000 N
   N1         1.0     0.7289(7)     0.5000(7)    -0.2711(5)    Biso  1.000000 N
   N1         1.0     1.0000(7)     0.2711(5)    -0.2289(7)    Biso  1.000000 N
   N1         1.0     0.7711(7)     0.5000(7)    -0.2289(5)    Biso  1.000000 N
   N1         1.0     1.0000(7)     0.2289(5)    -0.2711(7)    Biso  1.000000 N
   N1         1.0     0.5000(7)     0.2710(5)    -0.2711(7)    Biso  1.000000 N
   N1         1.0     0.5000(7)     0.2290(5)    -0.2290(7)    Biso  1.000000 N
   N1         1.0     0.7290(5)     0.2711(7)     0.5000(7)    Biso  1.000000 N
   N1         1.0     0.7710(5)     0.2290(7)     0.5000(7)    Biso  1.000000 N
   N1         1.0     0.7289(7)     0.5000(7)     0.2710(5)    Biso  1.000000 N
   N1         1.0     0.7710(7)     0.5000(7)     0.2290(5)    Biso  1.000000 N
   N1         1.0     0.7289(7)     0.0000(7)    -0.2290(5)    Biso  1.000000 N
   N1         1.0     0.7711(7)     0.0000(7)    -0.2710(5)    Biso  1.000000 N
   N1         1.0     0.2710(5)     0.2289(7)     0.0000(7)    Biso  1.000000 N
   N1         1.0     0.2290(5)     0.2711(7)     0.0000(7)    Biso  1.000000 N
   N1         1.0     1.0000(7)     0.2710(5)     0.2289(7)    Biso  1.000000 N
   N1         1.0     1.0000(7)     0.2290(5)     0.2711(7)    Biso  1.000000 N
   O1         1.0     0.53571(6)    0.17185(6)    0.12178(6)   Biso  1.000000 O
   O1         1.0     0.62178(6)    0.03571(6)    0.17185(6)   Biso  1.000000 O
   O1         1.0     0.67185(6)    0.12178(6)    0.03571(6)   Biso  1.000000 O
   O1         1.0     0.67185(6)    0.03571(6)    0.12178(6)   Biso  1.000000 O
   O1         1.0     0.53571(6)    0.12178(6)    0.17185(6)   Biso  1.000000 O
   O1         1.0     0.62178(6)    0.17185(6)    0.03571(6)   Biso  1.000000 O
   O1         1.0     0.96429(6)   -0.17185(6)    0.37822(6)   Biso  1.000000 O
   O1         1.0     0.87822(6)   -0.03571(6)    0.32815(6)   Biso  1.000000 O
   O1         1.0     0.82815(6)   -0.12178(6)    0.46429(6)   Biso  1.000000 O
   O1         1.0     0.82815(6)   -0.03571(6)    0.37822(6)   Biso  1.000000 O
   O1         1.0     0.96429(6)   -0.12178(6)    0.32815(6)   Biso  1.000000 O
   O1         1.0     0.87822(6)   -0.17185(6)    0.46429(6)   Biso  1.000000 O
   O1         1.0     0.96429(6)    0.32815(6)   -0.12178(6)   Biso  1.000000 O
   O1         1.0     0.87822(6)    0.46429(6)   -0.17185(6)   Biso  1.000000 O
   O1         1.0     0.82815(6)    0.37822(6)   -0.03571(6)   Biso  1.000000 O
   O1         1.0     0.82815(6)    0.46429(6)   -0.12178(6)   Biso  1.000000 O
   O1         1.0     0.96429(6)    0.37822(6)   -0.17185(6)   Biso  1.000000 O
   O1         1.0     0.87822(6)    0.32815(6)   -0.03571(6)   Biso  1.000000 O
   O1         1.0     0.46429(6)    0.32815(6)    0.37822(6)   Biso  1.000000 O
   O1         1.0     0.37822(6)    0.46429(6)    0.32815(6)   Biso  1.000000 O
   O1         1.0     0.32815(6)    0.37822(6)    0.46429(6)   Biso  1.000000 O
   O1         1.0     0.32815(6)    0.46429(6)    0.37822(6)   Biso  1.000000 O
   O1         1.0     0.46429(6)    0.37822(6)    0.32815(6)   Biso  1.000000 O
   O1         1.0     0.37822(6)    0.32815(6)    0.46429(6)   Biso  1.000000 O
   O1         1.0     0.53571(6)    0.17185(6)   -0.12178(6)   Biso  1.000000 O
   O1         1.0     0.62178(6)    0.03571(6)   -0.17185(6)   Biso  1.000000 O
   O1         1.0     0.53571(6)    0.12178(6)   -0.17185(6)   Biso  1.000000 O
   O1         1.0     0.62178(6)    0.17185(6)   -0.03571(6)   Biso  1.000000 O
   O1         1.0     0.46429(6)    0.17185(6)    0.12178(6)   Biso  1.000000 O
   O1         1.0     0.37822(6)    0.17185(6)    0.03571(6)   Biso  1.000000 O
   O1         1.0     0.37822(6)    0.03571(6)    0.17185(6)   Biso  1.000000 O
   O1         1.0     0.46429(6)    0.12178(6)    0.17185(6)   Biso  1.000000 O
   O1         1.0     0.62178(6)   -0.03571(6)    0.17185(6)   Biso  1.000000 O
   O1         1.0     0.53571(6)   -0.12178(6)    0.17185(6)   Biso  1.000000 O
   O1         1.0     0.67185(6)   -0.12178(6)    0.03571(6)   Biso  1.000000 O
   O1         1.0     0.67185(6)   -0.03571(6)    0.12178(6)   Biso  1.000000 O
   O1         1.0     0.67185(6)    0.12178(6)   -0.03571(6)   Biso  1.000000 O
   O1         1.0     0.67185(6)    0.03571(6)   -0.12178(6)   Biso  1.000000 O
   O1         1.0     0.96429(6)    0.17185(6)    0.37822(6)   Biso  1.000000 O
   O1         1.0     0.82815(6)    0.12178(6)    0.46429(6)   Biso  1.000000 O
   O1         1.0     0.82815(6)    0.03571(6)    0.37822(6)   Biso  1.000000 O
   O1         1.0     0.87822(6)    0.17185(6)    0.46429(6)   Biso  1.000000 O
   O1         1.0     0.82815(6)   -0.12178(6)    0.53571(6)   Biso  1.000000 O
   O1         1.0     0.82815(6)   -0.03571(6)    0.62178(6)   Biso  1.000000 O
   O1         1.0     0.96429(6)   -0.17185(6)    0.62178(6)   Biso  1.000000 O
   O1         1.0     0.87822(6)   -0.17185(6)    0.53571(6)   Biso  1.000000 O
   O1         1.0     1.03571(6)   -0.17185(6)    0.37822(6)   Biso  1.000000 O
   O1         1.0     1.12178(6)   -0.17185(6)    0.46429(6)   Biso  1.000000 O
   O1         1.0     1.12178(6)   -0.03571(6)    0.32815(6)   Biso  1.000000 O
   O1         1.0     1.03571(6)   -0.12178(6)    0.32815(6)   Biso  1.000000 O
   O1         1.0     0.87822(6)    0.03571(6)    0.32815(6)   Biso  1.000000 O
   O1         1.0     0.96429(6)    0.12178(6)    0.32815(6)   Biso  1.000000 O
   O1         1.0     1.12178(6)    0.46429(6)   -0.17185(6)   Biso  1.000000 O
   O1         1.0     1.17185(6)    0.37822(6)   -0.03571(6)   Biso  1.000000 O
   O1         1.0     1.17185(6)    0.46429(6)   -0.12178(6)   Biso  1.000000 O
   O1         1.0     1.03571(6)    0.37822(6)   -0.17185(6)   Biso  1.000000 O
   O1         1.0     0.96429(6)    0.32815(6)    0.12178(6)   Biso  1.000000 O
   O1         1.0     0.87822(6)    0.32815(6)    0.03571(6)   Biso  1.000000 O
   O1         1.0     1.03571(6)    0.32815(6)   -0.12178(6)   Biso  1.000000 O
   O1         1.0     1.12178(6)    0.32815(6)   -0.03571(6)   Biso  1.000000 O
   O1         1.0     0.87822(6)    0.53571(6)   -0.17185(6)   Biso  1.000000 O
   O1         1.0     0.96429(6)    0.62178(6)   -0.17185(6)   Biso  1.000000 O
   O1         1.0     0.82815(6)    0.62178(6)   -0.03571(6)   Biso  1.000000 O
   O1         1.0     0.82815(6)    0.53571(6)   -0.12178(6)   Biso  1.000000 O
   O1         1.0     0.82815(6)    0.37822(6)    0.03571(6)   Biso  1.000000 O
   O1         1.0     0.82815(6)    0.46429(6)    0.12178(6)   Biso  1.000000 O
   O1         1.0     0.62178(6)    0.46429(6)    0.32815(6)   Biso  1.000000 O
   O1         1.0     0.67185(6)    0.37822(6)    0.46429(6)   Biso  1.000000 O
   O1         1.0     0.67185(6)    0.46429(6)    0.37822(6)   Biso  1.000000 O
   O1         1.0     0.53571(6)    0.37822(6)    0.32815(6)   Biso  1.000000 O
   O1         1.0     0.46429(6)    0.32815(6)    0.62178(6)   Biso  1.000000 O
   O1         1.0     0.37822(6)    0.46429(6)    0.67185(6)   Biso  1.000000 O
   O1         1.0     0.46429(6)    0.37822(6)    0.67185(6)   Biso  1.000000 O
   O1         1.0     0.37822(6)    0.32815(6)    0.53571(6)   Biso  1.000000 O
   O1         1.0     0.46429(6)    0.67185(6)    0.37822(6)   Biso  1.000000 O
   O1         1.0     0.32815(6)    0.62178(6)    0.46429(6)   Biso  1.000000 O
   O1         1.0     0.32815(6)    0.53571(6)    0.37822(6)   Biso  1.000000 O
   O1         1.0     0.37822(6)    0.67185(6)    0.46429(6)   Biso  1.000000 O
   O1         1.0     0.53571(6)    0.32815(6)    0.37822(6)   Biso  1.000000 O
   O1         1.0     0.62178(6)    0.32815(6)    0.46429(6)   Biso  1.000000 O
   O1         1.0     0.37822(6)    0.53571(6)    0.32815(6)   Biso  1.000000 O
   O1         1.0     0.46429(6)    0.62178(6)    0.32815(6)   Biso  1.000000 O
   O1         1.0     0.32815(6)    0.37822(6)    0.53571(6)   Biso  1.000000 O
   O1         1.0     0.32815(6)    0.46429(6)    0.62178(6)   Biso  1.000000 O
   O1         1.0     0.46429(6)    0.17185(6)   -0.12178(6)   Biso  1.000000 O
   O1         1.0     0.37822(6)    0.17185(6)   -0.03571(6)   Biso  1.000000 O
   O1         1.0     0.82815(6)    0.12178(6)    0.53571(6)   Biso  1.000000 O
   O1         1.0     0.82815(6)    0.03571(6)    0.62178(6)   Biso  1.000000 O
   O1         1.0     1.12178(6)    0.53571(6)   -0.17185(6)   Biso  1.000000 O
   O1         1.0     1.03571(6)    0.62178(6)   -0.17185(6)   Biso  1.000000 O
   O1         1.0     0.67185(6)   -0.12178(6)   -0.03571(6)   Biso  1.000000 O
   O1         1.0     0.67185(6)   -0.03571(6)   -0.12178(6)   Biso  1.000000 O
   O1         1.0     1.12178(6)    0.03571(6)    0.32815(6)   Biso  1.000000 O
   O1         1.0     1.03571(6)    0.12178(6)    0.32815(6)   Biso  1.000000 O
   O1         1.0     1.03571(6)    0.32815(6)    0.12178(6)   Biso  1.000000 O
   O1         1.0     1.12178(6)    0.32815(6)    0.03571(6)   Biso  1.000000 O
   O2         1.0     0.53565(6)    0.21128(6)    0.16107(6)   Biso  1.000000 O
   O2         1.0     0.66107(6)    0.03565(6)    0.21128(6)   Biso  1.000000 O
   O2         1.0     0.71128(6)    0.16107(6)    0.03565(6)   Biso  1.000000 O
   O2         1.0     0.71128(6)    0.03565(6)    0.16107(6)   Biso  1.000000 O
   O2         1.0     0.53565(6)    0.16107(6)    0.21128(6)   Biso  1.000000 O
   O2         1.0     0.66107(6)    0.21128(6)    0.03565(6)   Biso  1.000000 O
   O2         1.0     0.96435(6)   -0.21128(6)    0.33893(6)   Biso  1.000000 O
   O2         1.0     0.83893(6)   -0.03565(6)    0.28872(6)   Biso  1.000000 O
   O2         1.0     0.78872(6)   -0.16107(6)    0.46435(6)   Biso  1.000000 O
   O2         1.0     0.78872(6)   -0.03565(6)    0.33893(6)   Biso  1.000000 O
   O2         1.0     0.96435(6)   -0.16107(6)    0.28872(6)   Biso  1.000000 O
   O2         1.0     0.83893(6)   -0.21128(6)    0.46435(6)   Biso  1.000000 O
   O2         1.0     0.96435(6)    0.28872(6)   -0.16107(6)   Biso  1.000000 O
   O2         1.0     0.83893(6)    0.46435(6)   -0.21128(6)   Biso  1.000000 O
   O2         1.0     0.78872(6)    0.33893(6)   -0.03565(6)   Biso  1.000000 O
   O2         1.0     0.78872(6)    0.46435(6)   -0.16107(6)   Biso  1.000000 O
   O2         1.0     0.96435(6)    0.33893(6)   -0.21128(6)   Biso  1.000000 O
   O2         1.0     0.83893(6)    0.28872(6)   -0.03565(6)   Biso  1.000000 O
   O2         1.0     0.46435(6)    0.28872(6)    0.33893(6)   Biso  1.000000 O
   O2         1.0     0.33893(6)    0.46435(6)    0.28872(6)   Biso  1.000000 O
   O2         1.0     0.28872(6)    0.33893(6)    0.46435(6)   Biso  1.000000 O
   O2         1.0     0.28872(6)    0.46435(6)    0.33893(6)   Biso  1.000000 O
   O2         1.0     0.46435(6)    0.33893(6)    0.28872(6)   Biso  1.000000 O
   O2         1.0     0.33893(6)    0.28872(6)    0.46435(6)   Biso  1.000000 O
   O2         1.0     0.53565(6)    0.21128(6)   -0.16107(6)   Biso  1.000000 O
   O2         1.0     0.66107(6)    0.03565(6)   -0.21128(6)   Biso  1.000000 O
   O2         1.0     0.53565(6)    0.16107(6)   -0.21128(6)   Biso  1.000000 O
   O2         1.0     0.66107(6)    0.21128(6)   -0.03565(6)   Biso  1.000000 O
   O2         1.0     0.46435(6)    0.21128(6)    0.16107(6)   Biso  1.000000 O
   O2         1.0     0.33893(6)    0.21128(6)    0.03565(6)   Biso  1.000000 O
   O2         1.0     0.33893(6)    0.03565(6)    0.21128(6)   Biso  1.000000 O
   O2         1.0     0.46435(6)    0.16107(6)    0.21128(6)   Biso  1.000000 O
   O2         1.0     0.66107(6)   -0.03565(6)    0.21128(6)   Biso  1.000000 O
   O2         1.0     0.53565(6)   -0.16107(6)    0.21128(6)   Biso  1.000000 O
   O2         1.0     0.71128(6)   -0.16107(6)    0.03565(6)   Biso  1.000000 O
   O2         1.0     0.71128(6)   -0.03565(6)    0.16107(6)   Biso  1.000000 O
   O2         1.0     0.71128(6)    0.16107(6)   -0.03565(6)   Biso  1.000000 O
   O2         1.0     0.71128(6)    0.03565(6)   -0.16107(6)   Biso  1.000000 O
   O2         1.0     0.96435(6)    0.21128(6)    0.33893(6)   Biso  1.000000 O
   O2         1.0     0.78872(6)    0.16107(6)    0.46435(6)   Biso  1.000000 O
   O2         1.0     0.78872(6)    0.03565(6)    0.33893(6)   Biso  1.000000 O
   O2         1.0     0.83893(6)    0.21128(6)    0.46435(6)   Biso  1.000000 O
   O2         1.0     0.78872(6)   -0.16107(6)    0.53565(6)   Biso  1.000000 O
   O2         1.0     0.78872(6)   -0.03565(6)    0.66107(6)   Biso  1.000000 O
   O2         1.0     0.96435(6)   -0.21128(6)    0.66107(6)   Biso  1.000000 O
   O2         1.0     0.83893(6)   -0.21128(6)    0.53565(6)   Biso  1.000000 O
   O2         1.0     1.03565(6)   -0.21128(6)    0.33893(6)   Biso  1.000000 O
   O2         1.0     1.16107(6)   -0.21128(6)    0.46435(6)   Biso  1.000000 O
   O2         1.0     1.16107(6)   -0.03565(6)    0.28872(6)   Biso  1.000000 O
   O2         1.0     1.03565(6)   -0.16107(6)    0.28872(6)   Biso  1.000000 O
   O2         1.0     0.83893(6)    0.03565(6)    0.28872(6)   Biso  1.000000 O
   O2         1.0     0.96435(6)    0.16107(6)    0.28872(6)   Biso  1.000000 O
   O2         1.0     1.16107(6)    0.46435(6)   -0.21128(6)   Biso  1.000000 O
   O2         1.0     1.21128(6)    0.33893(6)   -0.03565(6)   Biso  1.000000 O
   O2         1.0     1.21128(6)    0.46435(6)   -0.16107(6)   Biso  1.000000 O
   O2         1.0     1.03565(6)    0.33893(6)   -0.21128(6)   Biso  1.000000 O
   O2         1.0     0.96435(6)    0.28872(6)    0.16107(6)   Biso  1.000000 O
   O2         1.0     0.83893(6)    0.28872(6)    0.03565(6)   Biso  1.000000 O
   O2         1.0     1.03565(6)    0.28872(6)   -0.16107(6)   Biso  1.000000 O
   O2         1.0     1.16107(6)    0.28872(6)   -0.03565(6)   Biso  1.000000 O
   O2         1.0     0.83893(6)    0.53565(6)   -0.21128(6)   Biso  1.000000 O
   O2         1.0     0.96435(6)    0.66107(6)   -0.21128(6)   Biso  1.000000 O
   O2         1.0     0.78872(6)    0.66107(6)   -0.03565(6)   Biso  1.000000 O
   O2         1.0     0.78872(6)    0.53565(6)   -0.16107(6)   Biso  1.000000 O
   O2         1.0     0.78872(6)    0.33893(6)    0.03565(6)   Biso  1.000000 O
   O2         1.0     0.78872(6)    0.46435(6)    0.16107(6)   Biso  1.000000 O
   O2         1.0     0.66107(6)    0.46435(6)    0.28872(6)   Biso  1.000000 O
   O2         1.0     0.71128(6)    0.33893(6)    0.46435(6)   Biso  1.000000 O
   O2         1.0     0.71128(6)    0.46435(6)    0.33893(6)   Biso  1.000000 O
   O2         1.0     0.53565(6)    0.33893(6)    0.28872(6)   Biso  1.000000 O
   O2         1.0     0.46435(6)    0.28872(6)    0.66107(6)   Biso  1.000000 O
   O2         1.0     0.33893(6)    0.46435(6)    0.71128(6)   Biso  1.000000 O
   O2         1.0     0.46435(6)    0.33893(6)    0.71128(6)   Biso  1.000000 O
   O2         1.0     0.33893(6)    0.28872(6)    0.53565(6)   Biso  1.000000 O
   O2         1.0     0.46435(6)    0.71128(6)    0.33893(6)   Biso  1.000000 O
   O2         1.0     0.28872(6)    0.66107(6)    0.46435(6)   Biso  1.000000 O
   O2         1.0     0.28872(6)    0.53565(6)    0.33893(6)   Biso  1.000000 O
   O2         1.0     0.33893(6)    0.71128(6)    0.46435(6)   Biso  1.000000 O
   O2         1.0     0.53565(6)    0.28872(6)    0.33893(6)   Biso  1.000000 O
   O2         1.0     0.66107(6)    0.28872(6)    0.46435(6)   Biso  1.000000 O
   O2         1.0     0.33893(6)    0.53565(6)    0.28872(6)   Biso  1.000000 O
   O2         1.0     0.46435(6)    0.66107(6)    0.28872(6)   Biso  1.000000 O
   O2         1.0     0.28872(6)    0.33893(6)    0.53565(6)   Biso  1.000000 O
   O2         1.0     0.28872(6)    0.46435(6)    0.66107(6)   Biso  1.000000 O
   O2         1.0     0.46435(6)    0.21128(6)   -0.16107(6)   Biso  1.000000 O
   O2         1.0     0.33893(6)    0.21128(6)   -0.03565(6)   Biso  1.000000 O
   O2         1.0     0.78872(6)    0.16107(6)    0.53565(6)   Biso  1.000000 O
   O2         1.0     0.78872(6)    0.03565(6)    0.66107(6)   Biso  1.000000 O
   O2         1.0     1.16107(6)    0.53565(6)   -0.21128(6)   Biso  1.000000 O
   O2         1.0     1.03565(6)    0.66107(6)   -0.21128(6)   Biso  1.000000 O
   O2         1.0     0.71128(6)   -0.16107(6)   -0.03565(6)   Biso  1.000000 O
   O2         1.0     0.71128(6)   -0.03565(6)   -0.16107(6)   Biso  1.000000 O
   O2         1.0     1.16107(6)    0.03565(6)    0.28872(6)   Biso  1.000000 O
   O2         1.0     1.03565(6)    0.16107(6)    0.28872(6)   Biso  1.000000 O
   O2         1.0     1.03565(6)    0.28872(6)    0.16107(6)   Biso  1.000000 O
   O2         1.0     1.16107(6)    0.28872(6)    0.03565(6)   Biso  1.000000 O
   O3         1.0     0.50000(7)    0.10095(7)    0.10095(7)   Biso  1.000000 O
   O3         1.0     0.60095(7)    0.00000(7)    0.10095(7)   Biso  1.000000 O
   O3         1.0     0.60095(7)    0.10095(7)    0.00000(7)   Biso  1.000000 O
   O3         1.0     1.00000(7)   -0.10095(7)    0.39905(7)   Biso  1.000000 O
   O3         1.0     0.89905(7)    0.00000(7)    0.39905(7)   Biso  1.000000 O
   O3         1.0     0.89905(7)   -0.10095(7)    0.50000(7)   Biso  1.000000 O
   O3         1.0     1.00000(7)    0.39905(7)   -0.10095(7)   Biso  1.000000 O
   O3         1.0     0.89905(7)    0.50000(7)   -0.10095(7)   Biso  1.000000 O
   O3         1.0     0.89905(7)    0.39905(7)    0.00000(7)   Biso  1.000000 O
   O3         1.0     0.50000(7)    0.39905(7)    0.39905(7)   Biso  1.000000 O
   O3         1.0     0.39905(7)    0.50000(7)    0.39905(7)   Biso  1.000000 O
   O3         1.0     0.39905(7)    0.39905(7)    0.50000(7)   Biso  1.000000 O
   O3         1.0     0.50000(7)    0.10095(7)   -0.10095(7)   Biso  1.000000 O
   O3         1.0     0.89905(7)    0.10095(7)    0.50000(7)   Biso  1.000000 O
   O3         1.0     1.10095(7)    0.50000(7)   -0.10095(7)   Biso  1.000000 O
   O3         1.0     0.60095(7)    0.50000(7)    0.39905(7)   Biso  1.000000 O
   O3         1.0     0.50000(7)    0.39905(7)    0.60095(7)   Biso  1.000000 O
   O3         1.0     0.39905(7)    0.60095(7)    0.50000(7)   Biso  1.000000 O
   O3         1.0     0.60095(7)    0.00000(7)   -0.10095(7)   Biso  1.000000 O
   O3         1.0     0.39905(7)    0.10095(7)    0.00000(7)   Biso  1.000000 O
   O3         1.0     1.00000(7)    0.10095(7)    0.39905(7)   Biso  1.000000 O
   O3         1.0     0.89905(7)    0.00000(7)    0.60095(7)   Biso  1.000000 O
   O3         1.0     1.10095(7)    0.39905(7)    0.00000(7)   Biso  1.000000 O
   O3         1.0     1.00000(7)    0.39905(7)    0.10095(7)   Biso  1.000000 O
