
#######################################################################
#
#                 Cambridge Crystallographic Data Centre
#                                CCDC 
#
#######################################################################
#
# If this CIF has been generated from an entry in the Cambridge 
# Structural Database, then it will include bibliographic, chemical, 
# crystal, experimental, refinement or atomic coordinate data resulting 
# from the CCDC's data processing and validation procedures.
#
#######################################################################

data_VESTA_phase_1
_symmetry_cell_setting           triclinic
_symmetry_space_group_name_H-M   'P -1'
_symmetry_Int_Tables_number      2
_space_group_name_Hall           '-P 1'
loop_
_symmetry_equiv_pos_site_id
_symmetry_equiv_pos_as_xyz
1 x,y,z
2 -x,-y,-z
_cell_length_a                   39.887(3)
_cell_length_b                   39.887(3)
_cell_length_c                   39.887(3)
_cell_angle_alpha                90
_cell_angle_beta                 90
_cell_angle_gamma                90
_cell_volume                     63459.1
loop_
_atom_site_label
_atom_site_type_symbol
_atom_site_fract_x
_atom_site_fract_y
_atom_site_fract_z
Co1 Co 0.859450(14) 0.000000(14) 0.359450(14)
Co1 Co 0.859450(14) -0.140550(14) 0.500000(14)
Co1 Co 1.000000(14) 0.359450(14) -0.140550(14)
Co1 Co 0.859450(14) 0.500000(14) -0.140550(14)
Co1 Co 0.859450(14) 0.359450(14) 0.000000(14)
Co1 Co 0.500000(14) 0.359450(14) 0.359450(14)
Co1 Co 0.359450(14) 0.500000(14) 0.359450(14)
Co1 Co 0.359450(14) 0.359450(14) 0.500000(14)
Co1 Co 0.500000(14) 0.140550(14) -0.140550(14)
Co1 Co 0.859450(14) 0.140550(14) 0.500000(14)
Co1 Co 1.140550(14) 0.500000(14) -0.140550(14)
Co1 Co 0.640550(14) 0.500000(14) 0.359450(14)
Co1 Co 0.500000(14) 0.359450(14) 0.640550(14)
Co1 Co 0.359450(14) 0.640550(14) 0.500000(14)
Co1 Co 0.640550(14) 0.000000(14) -0.140550(14)
Co1 Co 0.359450(14) 0.140550(14) 0.000000(14)
Co1 Co 1.000000(14) 0.140550(14) 0.359450(14)
Co1 Co 0.859450(14) 0.000000(14) 0.640550(14)
Co1 Co 1.140550(14) 0.359450(14) 0.000000(14)
Co1 Co 1.000000(14) 0.359450(14) 0.140550(14)
Co2 Co 0.500000(14) 0.190150(14) 0.190150(14)
Co2 Co 0.690150(14) 0.000000(14) 0.190150(14)
Co2 Co 0.690150(14) 0.190150(14) 0.000000(14)
Co2 Co 1.000000(14) -0.190150(14) 0.309850(14)
Co2 Co 0.809850(14) 0.000000(14) 0.309850(14)
Co2 Co 0.809850(14) -0.190150(14) 0.500000(14)
Co2 Co 1.000000(14) 0.309850(14) -0.190150(14)
Co2 Co 0.809850(14) 0.500000(14) -0.190150(14)
Co2 Co 0.809850(14) 0.309850(14) 0.000000(14)
Co2 Co 0.500000(14) 0.309850(14) 0.309850(14)
Co2 Co 0.309850(14) 0.500000(14) 0.309850(14)
Co2 Co 0.309850(14) 0.309850(14) 0.500000(14)
Co2 Co 0.500000(14) 0.190150(14) -0.190150(14)
Co2 Co 0.809850(14) 0.190150(14) 0.500000(14)
Co2 Co 1.190150(14) 0.500000(14) -0.190150(14)
Co2 Co 0.690150(14) 0.500000(14) 0.309850(14)
Co2 Co 0.500000(14) 0.309850(14) 0.690150(14)
Co2 Co 0.309850(14) 0.690150(14) 0.500000(14)
Co2 Co 0.690150(14) 0.000000(14) -0.190150(14)
Co2 Co 0.309850(14) 0.190150(14) 0.000000(14)
Co2 Co 1.000000(14) 0.190150(14) 0.309850(14)
Co2 Co 0.809850(14) 0.000000(14) 0.690150(14)
Co2 Co 1.190150(14) 0.309850(14) 0.000000(14)
Co2 Co 1.000000(14) 0.309850(14) 0.190150(14)
C1 C 0.58996(9) 0.20088(9) 0.08996(9)
C1 C 0.58996(9) 0.08996(9) 0.20088(9)
C1 C 0.70088(9) 0.08996(9) 0.08996(9)
C1 C 0.91004(9) -0.20088(9) 0.41004(9)
C1 C 0.91004(9) -0.08996(9) 0.29912(9)
C1 C 0.79912(9) -0.08996(9) 0.41004(9)
C1 C 0.91004(9) 0.29912(9) -0.08996(9)
C1 C 0.91004(9) 0.41004(9) -0.20088(9)
C1 C 0.79912(9) 0.41004(9) -0.08996(9)
C1 C 0.41004(9) 0.29912(9) 0.41004(9)
C1 C 0.41004(9) 0.41004(9) 0.29912(9)
C1 C 0.29912(9) 0.41004(9) 0.41004(9)
C1 C 0.58996(9) 0.20088(9) -0.08996(9)
C1 C 0.58996(9) 0.08996(9) -0.20088(9)
C1 C 0.41004(9) 0.20088(9) 0.08996(9)
C1 C 0.41004(9) 0.08996(9) 0.20088(9)
C1 C 0.58996(9) -0.08996(9) 0.20088(9)
C1 C 0.70088(9) -0.08996(9) 0.08996(9)
C1 C 0.70088(9) 0.08996(9) -0.08996(9)
C1 C 0.91004(9) 0.20088(9) 0.41004(9)
C1 C 0.79912(9) 0.08996(9) 0.41004(9)
C1 C 0.79912(9) -0.08996(9) 0.58996(9)
C1 C 0.91004(9) -0.20088(9) 0.58996(9)
C1 C 1.08996(9) -0.20088(9) 0.41004(9)
C1 C 1.08996(9) -0.08996(9) 0.29912(9)
C1 C 0.91004(9) 0.08996(9) 0.29912(9)
C1 C 1.08996(9) 0.41004(9) -0.20088(9)
C1 C 1.20088(9) 0.41004(9) -0.08996(9)
C1 C 0.91004(9) 0.29912(9) 0.08996(9)
C1 C 1.08996(9) 0.29912(9) -0.08996(9)
C1 C 0.91004(9) 0.58996(9) -0.20088(9)
C1 C 0.79912(9) 0.58996(9) -0.08996(9)
C1 C 0.79912(9) 0.41004(9) 0.08996(9)
C1 C 0.58996(9) 0.41004(9) 0.29912(9)
C1 C 0.70088(9) 0.41004(9) 0.41004(9)
C1 C 0.41004(9) 0.29912(9) 0.58996(9)
C1 C 0.41004(9) 0.41004(9) 0.70088(9)
C1 C 0.41004(9) 0.70088(9) 0.41004(9)
C1 C 0.29912(9) 0.58996(9) 0.41004(9)
C1 C 0.58996(9) 0.29912(9) 0.41004(9)
C1 C 0.41004(9) 0.58996(9) 0.29912(9)
C1 C 0.29912(9) 0.41004(9) 0.58996(9)
C1 C 0.41004(9) 0.20088(9) -0.08996(9)
C1 C 0.79912(9) 0.08996(9) 0.58996(9)
C1 C 1.08996(9) 0.58996(9) -0.20088(9)
C1 C 0.70088(9) -0.08996(9) -0.08996(9)
C1 C 1.08996(9) 0.08996(9) 0.29912(9)
C1 C 1.08996(9) 0.29912(9) 0.08996(9)
C2 C 0.57488(8) 0.21549(8) 0.11732(8)
C2 C 0.61732(8) 0.07488(8) 0.21549(8)
C2 C 0.71549(8) 0.11732(8) 0.07488(8)
C2 C 0.71549(8) 0.07488(8) 0.11732(8)
C2 C 0.57488(8) 0.11732(8) 0.21549(8)
C2 C 0.61732(8) 0.21549(8) 0.07488(8)
C2 C 0.92512(8) -0.21549(8) 0.38268(8)
C2 C 0.88268(8) -0.07488(8) 0.28451(8)
C2 C 0.78451(8) -0.11732(8) 0.42512(8)
C2 C 0.78451(8) -0.07488(8) 0.38268(8)
C2 C 0.92512(8) -0.11732(8) 0.28451(8)
C2 C 0.88268(8) -0.21549(8) 0.42512(8)
C2 C 0.92512(8) 0.28451(8) -0.11732(8)
C2 C 0.88268(8) 0.42512(8) -0.21549(8)
C2 C 0.78451(8) 0.38268(8) -0.07488(8)
C2 C 0.78451(8) 0.42512(8) -0.11732(8)
C2 C 0.92512(8) 0.38268(8) -0.21549(8)
C2 C 0.88268(8) 0.28451(8) -0.07488(8)
C2 C 0.42512(8) 0.28451(8) 0.38268(8)
C2 C 0.38268(8) 0.42512(8) 0.28451(8)
C2 C 0.28451(8) 0.38268(8) 0.42512(8)
C2 C 0.28451(8) 0.42512(8) 0.38268(8)
C2 C 0.42512(8) 0.38268(8) 0.28451(8)
C2 C 0.38268(8) 0.28451(8) 0.42512(8)
C2 C 0.57488(8) 0.21549(8) -0.11732(8)
C2 C 0.61732(8) 0.07488(8) -0.21549(8)
C2 C 0.57488(8) 0.11732(8) -0.21549(8)
C2 C 0.61732(8) 0.21549(8) -0.07488(8)
C2 C 0.42512(8) 0.21549(8) 0.11732(8)
C2 C 0.38268(8) 0.21549(8) 0.07488(8)
C2 C 0.38268(8) 0.07488(8) 0.21549(8)
C2 C 0.42512(8) 0.11732(8) 0.21549(8)
C2 C 0.61732(8) -0.07488(8) 0.21549(8)
C2 C 0.57488(8) -0.11732(8) 0.21549(8)
C2 C 0.71549(8) -0.11732(8) 0.07488(8)
C2 C 0.71549(8) -0.07488(8) 0.11732(8)
C2 C 0.71549(8) 0.11732(8) -0.07488(8)
C2 C 0.71549(8) 0.07488(8) -0.11732(8)
C2 C 0.92512(8) 0.21549(8) 0.38268(8)
C2 C 0.78451(8) 0.11732(8) 0.42512(8)
C2 C 0.78451(8) 0.07488(8) 0.38268(8)
C2 C 0.88268(8) 0.21549(8) 0.42512(8)
C2 C 0.78451(8) -0.11732(8) 0.57488(8)
C2 C 0.78451(8) -0.07488(8) 0.61732(8)
C2 C 0.92512(8) -0.21549(8) 0.61732(8)
C2 C 0.88268(8) -0.21549(8) 0.57488(8)
C2 C 1.07488(8) -0.21549(8) 0.38268(8)
C2 C 1.11732(8) -0.21549(8) 0.42512(8)
C2 C 1.11732(8) -0.07488(8) 0.28451(8)
C2 C 1.07488(8) -0.11732(8) 0.28451(8)
C2 C 0.88268(8) 0.07488(8) 0.28451(8)
C2 C 0.92512(8) 0.11732(8) 0.28451(8)
C2 C 1.11732(8) 0.42512(8) -0.21549(8)
C2 C 1.21549(8) 0.38268(8) -0.07488(8)
C2 C 1.21549(8) 0.42512(8) -0.11732(8)
C2 C 1.07488(8) 0.38268(8) -0.21549(8)
C2 C 0.92512(8) 0.28451(8) 0.11732(8)
C2 C 0.88268(8) 0.28451(8) 0.07488(8)
C2 C 1.07488(8) 0.28451(8) -0.11732(8)
C2 C 1.11732(8) 0.28451(8) -0.07488(8)
C2 C 0.88268(8) 0.57488(8) -0.21549(8)
C2 C 0.92512(8) 0.61732(8) -0.21549(8)
C2 C 0.78451(8) 0.61732(8) -0.07488(8)
C2 C 0.78451(8) 0.57488(8) -0.11732(8)
C2 C 0.78451(8) 0.38268(8) 0.07488(8)
C2 C 0.78451(8) 0.42512(8) 0.11732(8)
C2 C 0.61732(8) 0.42512(8) 0.28451(8)
C2 C 0.71549(8) 0.38268(8) 0.42512(8)
C2 C 0.71549(8) 0.42512(8) 0.38268(8)
C2 C 0.57488(8) 0.38268(8) 0.28451(8)
C2 C 0.42512(8) 0.28451(8) 0.61732(8)
C2 C 0.38268(8) 0.42512(8) 0.71549(8)
C2 C 0.42512(8) 0.38268(8) 0.71549(8)
C2 C 0.38268(8) 0.28451(8) 0.57488(8)
C2 C 0.42512(8) 0.71549(8) 0.38268(8)
C2 C 0.28451(8) 0.61732(8) 0.42512(8)
C2 C 0.28451(8) 0.57488(8) 0.38268(8)
C2 C 0.38268(8) 0.71549(8) 0.42512(8)
C2 C 0.57488(8) 0.28451(8) 0.38268(8)
C2 C 0.61732(8) 0.28451(8) 0.42512(8)
C2 C 0.38268(8) 0.57488(8) 0.28451(8)
C2 C 0.42512(8) 0.61732(8) 0.28451(8)
C2 C 0.28451(8) 0.38268(8) 0.57488(8)
C2 C 0.28451(8) 0.42512(8) 0.61732(8)
C2 C 0.42512(8) 0.21549(8) -0.11732(8)
C2 C 0.38268(8) 0.21549(8) -0.07488(8)
C2 C 0.78451(8) 0.11732(8) 0.57488(8)
C2 C 0.78451(8) 0.07488(8) 0.61732(8)
C2 C 1.11732(8) 0.57488(8) -0.21549(8)
C2 C 1.07488(8) 0.61732(8) -0.21549(8)
C2 C 0.71549(8) -0.11732(8) -0.07488(8)
C2 C 0.71549(8) -0.07488(8) -0.11732(8)
C2 C 1.11732(8) 0.07488(8) 0.28451(8)
C2 C 1.07488(8) 0.11732(8) 0.28451(8)
C2 C 1.07488(8) 0.28451(8) 0.11732(8)
C2 C 1.11732(8) 0.28451(8) 0.07488(8)
C3 C 0.58733(10) 0.24650(10) 0.12917(10)
C3 C 0.62917(10) 0.08733(10) 0.24650(10)
C3 C 0.74650(10) 0.12917(10) 0.08733(10)
C3 C 0.74650(10) 0.08733(10) 0.12917(10)
C3 C 0.58733(10) 0.12917(10) 0.24650(10)
C3 C 0.62917(10) 0.24650(10) 0.08733(10)
C3 C 0.91267(10) -0.24650(10) 0.37083(10)
C3 C 0.87083(10) -0.08733(10) 0.25350(10)
C3 C 0.75350(10) -0.12917(10) 0.41267(10)
C3 C 0.75350(10) -0.08733(10) 0.37083(10)
C3 C 0.91267(10) -0.12917(10) 0.25350(10)
C3 C 0.87083(10) -0.24650(10) 0.41267(10)
C3 C 0.91267(10) 0.25350(10) -0.12917(10)
C3 C 0.87083(10) 0.41267(10) -0.24650(10)
C3 C 0.75350(10) 0.37083(10) -0.08733(10)
C3 C 0.75350(10) 0.41267(10) -0.12917(10)
C3 C 0.91267(10) 0.37083(10) -0.24650(10)
C3 C 0.87083(10) 0.25350(10) -0.08733(10)
C3 C 0.41267(10) 0.25350(10) 0.37083(10)
C3 C 0.37083(10) 0.41267(10) 0.25350(10)
C3 C 0.25350(10) 0.37083(10) 0.41267(10)
C3 C 0.25350(10) 0.41267(10) 0.37083(10)
C3 C 0.41267(10) 0.37083(10) 0.25350(10)
C3 C 0.37083(10) 0.25350(10) 0.41267(10)
C3 C 0.58733(10) 0.24650(10) -0.12917(10)
C3 C 0.62917(10) 0.08733(10) -0.24650(10)
C3 C 0.58733(10) 0.12917(10) -0.24650(10)
C3 C 0.62917(10) 0.24650(10) -0.08733(10)
C3 C 0.41267(10) 0.24650(10) 0.12917(10)
C3 C 0.37083(10) 0.24650(10) 0.08733(10)
C3 C 0.37083(10) 0.08733(10) 0.24650(10)
C3 C 0.41267(10) 0.12917(10) 0.24650(10)
C3 C 0.62917(10) -0.08733(10) 0.24650(10)
C3 C 0.58733(10) -0.12917(10) 0.24650(10)
C3 C 0.74650(10) -0.12917(10) 0.08733(10)
C3 C 0.74650(10) -0.08733(10) 0.12917(10)
C3 C 0.74650(10) 0.12917(10) -0.08733(10)
C3 C 0.74650(10) 0.08733(10) -0.12917(10)
C3 C 0.91267(10) 0.24650(10) 0.37083(10)
C3 C 0.75350(10) 0.12917(10) 0.41267(10)
C3 C 0.75350(10) 0.08733(10) 0.37083(10)
C3 C 0.87083(10) 0.24650(10) 0.41267(10)
C3 C 0.75350(10) -0.12917(10) 0.58733(10)
C3 C 0.75350(10) -0.08733(10) 0.62917(10)
C3 C 0.91267(10) -0.24650(10) 0.62917(10)
C3 C 0.87083(10) -0.24650(10) 0.58733(10)
C3 C 1.08733(10) -0.24650(10) 0.37083(10)
C3 C 1.12917(10) -0.24650(10) 0.41267(10)
C3 C 1.12917(10) -0.08733(10) 0.25350(10)
C3 C 1.08733(10) -0.12917(10) 0.25350(10)
C3 C 0.87083(10) 0.08733(10) 0.25350(10)
C3 C 0.91267(10) 0.12917(10) 0.25350(10)
C3 C 1.12917(10) 0.41267(10) -0.24650(10)
C3 C 1.24650(10) 0.37083(10) -0.08733(10)
C3 C 1.24650(10) 0.41267(10) -0.12917(10)
C3 C 1.08733(10) 0.37083(10) -0.24650(10)
C3 C 0.91267(10) 0.25350(10) 0.12917(10)
C3 C 0.87083(10) 0.25350(10) 0.08733(10)
C3 C 1.08733(10) 0.25350(10) -0.12917(10)
C3 C 1.12917(10) 0.25350(10) -0.08733(10)
C3 C 0.87083(10) 0.58733(10) -0.24650(10)
C3 C 0.91267(10) 0.62917(10) -0.24650(10)
C3 C 0.75350(10) 0.62917(10) -0.08733(10)
C3 C 0.75350(10) 0.58733(10) -0.12917(10)
C3 C 0.75350(10) 0.37083(10) 0.08733(10)
C3 C 0.75350(10) 0.41267(10) 0.12917(10)
C3 C 0.62917(10) 0.41267(10) 0.25350(10)
C3 C 0.74650(10) 0.37083(10) 0.41267(10)
C3 C 0.74650(10) 0.41267(10) 0.37083(10)
C3 C 0.58733(10) 0.37083(10) 0.25350(10)
C3 C 0.41267(10) 0.25350(10) 0.62917(10)
C3 C 0.37083(10) 0.41267(10) 0.74650(10)
C3 C 0.41267(10) 0.37083(10) 0.74650(10)
C3 C 0.37083(10) 0.25350(10) 0.58733(10)
C3 C 0.41267(10) 0.74650(10) 0.37083(10)
C3 C 0.25350(10) 0.62917(10) 0.41267(10)
C3 C 0.25350(10) 0.58733(10) 0.37083(10)
C3 C 0.37083(10) 0.74650(10) 0.41267(10)
C3 C 0.58733(10) 0.25350(10) 0.37083(10)
C3 C 0.62917(10) 0.25350(10) 0.41267(10)
C3 C 0.37083(10) 0.58733(10) 0.25350(10)
C3 C 0.41267(10) 0.62917(10) 0.25350(10)
C3 C 0.25350(10) 0.37083(10) 0.58733(10)
C3 C 0.25350(10) 0.41267(10) 0.62917(10)
C3 C 0.41267(10) 0.24650(10) -0.12917(10)
C3 C 0.37083(10) 0.24650(10) -0.08733(10)
C3 C 0.75350(10) 0.12917(10) 0.58733(10)
C3 C 0.75350(10) 0.08733(10) 0.62917(10)
C3 C 1.12917(10) 0.58733(10) -0.24650(10)
C3 C 1.08733(10) 0.62917(10) -0.24650(10)
C3 C 0.74650(10) -0.12917(10) -0.08733(10)
C3 C 0.74650(10) -0.08733(10) -0.12917(10)
C3 C 1.12917(10) 0.08733(10) 0.25350(10)
C3 C 1.08733(10) 0.12917(10) 0.25350(10)
C3 C 1.08733(10) 0.25350(10) 0.12917(10)
C3 C 1.12917(10) 0.25350(10) 0.08733(10)
C4 C 0.61436(14) 0.26151(14) 0.11436(14)
C4 C 0.61436(14) 0.11436(14) 0.26151(14)
C4 C 0.76151(14) 0.11436(14) 0.11436(14)
C4 C 0.88564(14) -0.26151(14) 0.38564(14)
C4 C 0.88564(14) -0.11436(14) 0.23849(14)
C4 C 0.73849(14) -0.11436(14) 0.38564(14)
C4 C 0.88564(14) 0.23849(14) -0.11436(14)
C4 C 0.88564(14) 0.38564(14) -0.26151(14)
C4 C 0.73849(14) 0.38564(14) -0.11436(14)
C4 C 0.38564(14) 0.23849(14) 0.38564(14)
C4 C 0.38564(14) 0.38564(14) 0.23849(14)
C4 C 0.23849(14) 0.38564(14) 0.38564(14)
C4 C 0.61436(14) 0.26151(14) -0.11436(14)
C4 C 0.61436(14) 0.11436(14) -0.26151(14)
C4 C 0.38564(14) 0.26151(14) 0.11436(14)
C4 C 0.38564(14) 0.11436(14) 0.26151(14)
C4 C 0.61436(14) -0.11436(14) 0.26151(14)
C4 C 0.76151(14) -0.11436(14) 0.11436(14)
C4 C 0.76151(14) 0.11436(14) -0.11436(14)
C4 C 0.88564(14) 0.26151(14) 0.38564(14)
C4 C 0.73849(14) 0.11436(14) 0.38564(14)
C4 C 0.73849(14) -0.11436(14) 0.61436(14)
C4 C 0.88564(14) -0.26151(14) 0.61436(14)
C4 C 1.11436(14) -0.26151(14) 0.38564(14)
C4 C 1.11436(14) -0.11436(14) 0.23849(14)
C4 C 0.88564(14) 0.11436(14) 0.23849(14)
C4 C 1.11436(14) 0.38564(14) -0.26151(14)
C4 C 1.26151(14) 0.38564(14) -0.11436(14)
C4 C 0.88564(14) 0.23849(14) 0.11436(14)
C4 C 1.11436(14) 0.23849(14) -0.11436(14)
C4 C 0.88564(14) 0.61436(14) -0.26151(14)
C4 C 0.73849(14) 0.61436(14) -0.11436(14)
C4 C 0.73849(14) 0.38564(14) 0.11436(14)
C4 C 0.61436(14) 0.38564(14) 0.23849(14)
C4 C 0.76151(14) 0.38564(14) 0.38564(14)
C4 C 0.38564(14) 0.23849(14) 0.61436(14)
C4 C 0.38564(14) 0.38564(14) 0.76151(14)
C4 C 0.38564(14) 0.76151(14) 0.38564(14)
C4 C 0.23849(14) 0.61436(14) 0.38564(14)
C4 C 0.61436(14) 0.23849(14) 0.38564(14)
C4 C 0.38564(14) 0.61436(14) 0.23849(14)
C4 C 0.23849(14) 0.38564(14) 0.61436(14)
C4 C 0.38564(14) 0.26151(14) -0.11436(14)
C4 C 0.73849(14) 0.11436(14) 0.61436(14)
C4 C 1.11436(14) 0.61436(14) -0.26151(14)
C4 C 0.76151(14) -0.11436(14) -0.11436(14)
C4 C 1.11436(14) 0.11436(14) 0.23849(14)
C4 C 1.11436(14) 0.23849(14) 0.11436(14)
C5 C 0.6273(2) 0.2953(2) 0.1273(2)
C5 C 0.6273(2) 0.1273(2) 0.2953(2)
C5 C 0.7953(2) 0.1273(2) 0.1273(2)
C5 C 0.8727(2) -0.2953(2) 0.3727(2)
C5 C 0.8727(2) -0.1273(2) 0.2047(2)
C5 C 0.7047(2) -0.1273(2) 0.3727(2)
C5 C 0.8727(2) 0.2047(2) -0.1273(2)
C5 C 0.8727(2) 0.3727(2) -0.2953(2)
C5 C 0.7047(2) 0.3727(2) -0.1273(2)
C5 C 0.3727(2) 0.2047(2) 0.3727(2)
C5 C 0.3727(2) 0.3727(2) 0.2047(2)
C5 C 0.2047(2) 0.3727(2) 0.3727(2)
C5 C 0.6273(2) 0.2953(2) -0.1273(2)
C5 C 0.6273(2) 0.1273(2) -0.2953(2)
C5 C 0.3727(2) 0.2953(2) 0.1273(2)
C5 C 0.3727(2) 0.1273(2) 0.2953(2)
C5 C 0.6273(2) -0.1273(2) 0.2953(2)
C5 C 0.7953(2) -0.1273(2) 0.1273(2)
C5 C 0.7953(2) 0.1273(2) -0.1273(2)
C5 C 0.8727(2) 0.2953(2) 0.3727(2)
C5 C 0.7047(2) 0.1273(2) 0.3727(2)
C5 C 0.7047(2) -0.1273(2) 0.6273(2)
C5 C 0.8727(2) -0.2953(2) 0.6273(2)
C5 C 1.1273(2) -0.2953(2) 0.3727(2)
C5 C 1.1273(2) -0.1273(2) 0.2047(2)
C5 C 0.8727(2) 0.1273(2) 0.2047(2)
C5 C 1.1273(2) 0.3727(2) -0.2953(2)
C5 C 1.2953(2) 0.3727(2) -0.1273(2)
C5 C 0.8727(2) 0.2047(2) 0.1273(2)
C5 C 1.1273(2) 0.2047(2) -0.1273(2)
C5 C 0.8727(2) 0.6273(2) -0.2953(2)
C5 C 0.7047(2) 0.6273(2) -0.1273(2)
C5 C 0.7047(2) 0.3727(2) 0.1273(2)
C5 C 0.6273(2) 0.3727(2) 0.2047(2)
C5 C 0.7953(2) 0.3727(2) 0.3727(2)
C5 C 0.3727(2) 0.2047(2) 0.6273(2)
C5 C 0.3727(2) 0.3727(2) 0.7953(2)
C5 C 0.3727(2) 0.7953(2) 0.3727(2)
C5 C 0.2047(2) 0.6273(2) 0.3727(2)
C5 C 0.6273(2) 0.2047(2) 0.3727(2)
C5 C 0.3727(2) 0.6273(2) 0.2047(2)
C5 C 0.2047(2) 0.3727(2) 0.6273(2)
C5 C 0.3727(2) 0.2953(2) -0.1273(2)
C5 C 0.7047(2) 0.1273(2) 0.6273(2)
C5 C 1.1273(2) 0.6273(2) -0.2953(2)
C5 C 0.7953(2) -0.1273(2) -0.1273(2)
C5 C 1.1273(2) 0.1273(2) 0.2047(2)
C5 C 1.1273(2) 0.2047(2) 0.1273(2)
C6 C 0.54641(8) 0.19799(8) 0.13477(8)
C6 C 0.63477(8) 0.04641(8) 0.19799(8)
C6 C 0.69799(8) 0.13477(8) 0.04641(8)
C6 C 0.69799(8) 0.04641(8) 0.13477(8)
C6 C 0.54641(8) 0.13477(8) 0.19799(8)
C6 C 0.63477(8) 0.19799(8) 0.04641(8)
C6 C 0.95359(8) -0.19799(8) 0.36523(8)
C6 C 0.86523(8) -0.04641(8) 0.30201(8)
C6 C 0.80201(8) -0.13477(8) 0.45359(8)
C6 C 0.80201(8) -0.04641(8) 0.36523(8)
C6 C 0.95359(8) -0.13477(8) 0.30201(8)
C6 C 0.86523(8) -0.19799(8) 0.45359(8)
C6 C 0.95359(8) 0.30201(8) -0.13477(8)
C6 C 0.86523(8) 0.45359(8) -0.19799(8)
C6 C 0.80201(8) 0.36523(8) -0.04641(8)
C6 C 0.80201(8) 0.45359(8) -0.13477(8)
C6 C 0.95359(8) 0.36523(8) -0.19799(8)
C6 C 0.86523(8) 0.30201(8) -0.04641(8)
C6 C 0.45359(8) 0.30201(8) 0.36523(8)
C6 C 0.36523(8) 0.45359(8) 0.30201(8)
C6 C 0.30201(8) 0.36523(8) 0.45359(8)
C6 C 0.30201(8) 0.45359(8) 0.36523(8)
C6 C 0.45359(8) 0.36523(8) 0.30201(8)
C6 C 0.36523(8) 0.30201(8) 0.45359(8)
C6 C 0.54641(8) 0.19799(8) -0.13477(8)
C6 C 0.63477(8) 0.04641(8) -0.19799(8)
C6 C 0.54641(8) 0.13477(8) -0.19799(8)
C6 C 0.63477(8) 0.19799(8) -0.04641(8)
C6 C 0.45359(8) 0.19799(8) 0.13477(8)
C6 C 0.36523(8) 0.19799(8) 0.04641(8)
C6 C 0.36523(8) 0.04641(8) 0.19799(8)
C6 C 0.45359(8) 0.13477(8) 0.19799(8)
C6 C 0.63477(8) -0.04641(8) 0.19799(8)
C6 C 0.54641(8) -0.13477(8) 0.19799(8)
C6 C 0.69799(8) -0.13477(8) 0.04641(8)
C6 C 0.69799(8) -0.04641(8) 0.13477(8)
C6 C 0.69799(8) 0.13477(8) -0.04641(8)
C6 C 0.69799(8) 0.04641(8) -0.13477(8)
C6 C 0.95359(8) 0.19799(8) 0.36523(8)
C6 C 0.80201(8) 0.13477(8) 0.45359(8)
C6 C 0.80201(8) 0.04641(8) 0.36523(8)
C6 C 0.86523(8) 0.19799(8) 0.45359(8)
C6 C 0.80201(8) -0.13477(8) 0.54641(8)
C6 C 0.80201(8) -0.04641(8) 0.63477(8)
C6 C 0.95359(8) -0.19799(8) 0.63477(8)
C6 C 0.86523(8) -0.19799(8) 0.54641(8)
C6 C 1.04641(8) -0.19799(8) 0.36523(8)
C6 C 1.13477(8) -0.19799(8) 0.45359(8)
C6 C 1.13477(8) -0.04641(8) 0.30201(8)
C6 C 1.04641(8) -0.13477(8) 0.30201(8)
C6 C 0.86523(8) 0.04641(8) 0.30201(8)
C6 C 0.95359(8) 0.13477(8) 0.30201(8)
C6 C 1.13477(8) 0.45359(8) -0.19799(8)
C6 C 1.19799(8) 0.36523(8) -0.04641(8)
C6 C 1.19799(8) 0.45359(8) -0.13477(8)
C6 C 1.04641(8) 0.36523(8) -0.19799(8)
C6 C 0.95359(8) 0.30201(8) 0.13477(8)
C6 C 0.86523(8) 0.30201(8) 0.04641(8)
C6 C 1.04641(8) 0.30201(8) -0.13477(8)
C6 C 1.13477(8) 0.30201(8) -0.04641(8)
C6 C 0.86523(8) 0.54641(8) -0.19799(8)
C6 C 0.95359(8) 0.63477(8) -0.19799(8)
C6 C 0.80201(8) 0.63477(8) -0.04641(8)
C6 C 0.80201(8) 0.54641(8) -0.13477(8)
C6 C 0.80201(8) 0.36523(8) 0.04641(8)
C6 C 0.80201(8) 0.45359(8) 0.13477(8)
C6 C 0.63477(8) 0.45359(8) 0.30201(8)
C6 C 0.69799(8) 0.36523(8) 0.45359(8)
C6 C 0.69799(8) 0.45359(8) 0.36523(8)
C6 C 0.54641(8) 0.36523(8) 0.30201(8)
C6 C 0.45359(8) 0.30201(8) 0.63477(8)
C6 C 0.36523(8) 0.45359(8) 0.69799(8)
C6 C 0.45359(8) 0.36523(8) 0.69799(8)
C6 C 0.36523(8) 0.30201(8) 0.54641(8)
C6 C 0.45359(8) 0.69799(8) 0.36523(8)
C6 C 0.30201(8) 0.63477(8) 0.45359(8)
C6 C 0.30201(8) 0.54641(8) 0.36523(8)
C6 C 0.36523(8) 0.69799(8) 0.45359(8)
C6 C 0.54641(8) 0.30201(8) 0.36523(8)
C6 C 0.63477(8) 0.30201(8) 0.45359(8)
C6 C 0.36523(8) 0.54641(8) 0.30201(8)
C6 C 0.45359(8) 0.63477(8) 0.30201(8)
C6 C 0.30201(8) 0.36523(8) 0.54641(8)
C6 C 0.30201(8) 0.45359(8) 0.63477(8)
C6 C 0.45359(8) 0.19799(8) -0.13477(8)
C6 C 0.36523(8) 0.19799(8) -0.04641(8)
C6 C 0.80201(8) 0.13477(8) 0.54641(8)
C6 C 0.80201(8) 0.04641(8) 0.63477(8)
C6 C 1.13477(8) 0.54641(8) -0.19799(8)
C6 C 1.04641(8) 0.63477(8) -0.19799(8)
C6 C 0.69799(8) -0.13477(8) -0.04641(8)
C6 C 0.69799(8) -0.04641(8) -0.13477(8)
C6 C 1.13477(8) 0.04641(8) 0.30201(8)
C6 C 1.04641(8) 0.13477(8) 0.30201(8)
C6 C 1.04641(8) 0.30201(8) 0.13477(8)
C6 C 1.13477(8) 0.30201(8) 0.04641(8)
C7 C 0.4916(5) 0.2859(7) 0.2384(7)
C7 C 0.4916(5) 0.2616(7) 0.2141(7)
C7 C 0.7616(7) 0.2141(7) -0.0084(5)
C7 C 0.7859(7) 0.2384(7) -0.0084(5)
C7 C 0.7141(7) -0.2384(7) 0.5084(5)
C7 C 0.7141(7) 0.0084(5) 0.2616(7)
C7 C 0.7384(7) -0.2141(7) 0.5084(5)
C7 C 0.7384(7) 0.0084(5) 0.2859(7)
C7 C 0.7616(7) 0.5084(5) -0.2859(7)
C7 C 0.7859(7) 0.5084(5) -0.2616(7)
C7 C 1.0084(5) 0.2859(7) -0.2616(7)
C7 C 1.0084(5) 0.2616(7) -0.2859(7)
C7 C 0.4916(5) 0.2384(7) -0.2859(7)
C7 C 0.4916(5) 0.2141(7) -0.2616(7)
C7 C 0.7141(7) 0.2384(7) 0.5084(5)
C7 C 0.7384(7) 0.2141(7) 0.5084(5)
C7 C 0.7616(7) 0.5084(5) 0.2859(7)
C7 C 0.7859(7) 0.5084(5) 0.2616(7)
C7 C 0.7616(7) 0.0084(5) -0.2141(7)
C7 C 0.7859(7) 0.0084(5) -0.2384(7)
C7 C 0.2859(7) 0.2616(7) 0.0084(5)
C7 C 0.2616(7) 0.2859(7) 0.0084(5)
C7 C 0.9916(5) 0.2859(7) 0.2616(7)
C7 C 0.9916(5) 0.2616(7) 0.2859(7)
C9 C 0.5340(5) 0.2562(5) 0.2681(5)
C9 C 0.5340(5) 0.2319(5) 0.2438(5)
C9 C 0.7319(5) 0.2438(5) 0.0340(5)
C9 C 0.7562(5) 0.2681(5) 0.0340(5)
C9 C 0.7438(5) -0.2681(5) 0.4660(5)
C9 C 0.7438(5) -0.0340(5) 0.2319(5)
C9 C 0.7681(5) -0.2438(5) 0.4660(5)
C9 C 0.7681(5) -0.0340(5) 0.2562(5)
C9 C 0.7319(5) 0.4660(5) -0.2562(5)
C9 C 0.7562(5) 0.4660(5) -0.2319(5)
C9 C 0.9660(5) 0.2562(5) -0.2319(5)
C9 C 0.9660(5) 0.2319(5) -0.2562(5)
C9 C 0.5340(5) 0.2681(5) -0.2562(5)
C9 C 0.5340(5) 0.2438(5) -0.2319(5)
C9 C 0.7438(5) 0.2681(5) 0.4660(5)
C9 C 0.7681(5) 0.2438(5) 0.4660(5)
C9 C 0.7319(5) 0.4660(5) 0.2562(5)
C9 C 0.7562(5) 0.4660(5) 0.2319(5)
C9 C 0.7319(5) -0.0340(5) -0.2438(5)
C9 C 0.7562(5) -0.0340(5) -0.2681(5)
C9 C 0.2562(5) 0.2319(5) -0.0340(5)
C9 C 0.2319(5) 0.2562(5) -0.0340(5)
C9 C 1.0340(5) 0.2562(5) 0.2319(5)
C9 C 1.0340(5) 0.2319(5) 0.2562(5)
C11 C 0.4764(5) 0.2448(5) 0.2788(5)
C11 C 0.4764(5) 0.2212(5) 0.2552(5)
C11 C 0.7212(5) 0.2552(5) -0.0236(5)
C11 C 0.7448(5) 0.2788(5) -0.0236(5)
C11 C 0.7552(5) -0.2788(5) 0.5236(5)
C11 C 0.7552(5) 0.0236(5) 0.2212(5)
C11 C 0.7788(5) -0.2552(5) 0.5236(5)
C11 C 0.7788(5) 0.0236(5) 0.2448(5)
C11 C 0.7212(5) 0.5236(5) -0.2448(5)
C11 C 0.7448(5) 0.5236(5) -0.2212(5)
C11 C 1.0236(5) 0.2448(5) -0.2212(5)
C11 C 1.0236(5) 0.2212(5) -0.2448(5)
C11 C 0.4764(5) 0.2788(5) -0.2448(5)
C11 C 0.4764(5) 0.2552(5) -0.2212(5)
C11 C 0.7552(5) 0.2788(5) 0.5236(5)
C11 C 0.7788(5) 0.2552(5) 0.5236(5)
C11 C 0.7212(5) 0.5236(5) 0.2448(5)
C11 C 0.7448(5) 0.5236(5) 0.2212(5)
C11 C 0.7212(5) 0.0236(5) -0.2552(5)
C11 C 0.7448(5) 0.0236(5) -0.2788(5)
C11 C 0.2448(5) 0.2212(5) 0.0236(5)
C11 C 0.2212(5) 0.2448(5) 0.0236(5)
C11 C 0.9764(5) 0.2448(5) 0.2212(5)
C11 C 0.9764(5) 0.2212(5) 0.2448(5)
H1 H 0.581500 0.180800 0.081500
H1 H 0.581500 0.081500 0.180800
H1 H 0.680800 0.081500 0.081500
H1 H 0.918500 -0.180800 0.418500
H1 H 0.918500 -0.081500 0.319200
H1 H 0.819200 -0.081500 0.418500
H1 H 0.918500 0.319200 -0.081500
H1 H 0.918500 0.418500 -0.180800
H1 H 0.819200 0.418500 -0.081500
H1 H 0.418500 0.319200 0.418500
H1 H 0.418500 0.418500 0.319200
H1 H 0.319200 0.418500 0.418500
H1 H 0.581500 0.180800 -0.081500
H1 H 0.581500 0.081500 -0.180800
H1 H 0.418500 0.180800 0.081500
H1 H 0.418500 0.081500 0.180800
H1 H 0.581500 -0.081500 0.180800
H1 H 0.680800 -0.081500 0.081500
H1 H 0.680800 0.081500 -0.081500
H1 H 0.918500 0.180800 0.418500
H1 H 0.819200 0.081500 0.418500
H1 H 0.819200 -0.081500 0.581500
H1 H 0.918500 -0.180800 0.581500
H1 H 1.081500 -0.180800 0.418500
H1 H 1.081500 -0.081500 0.319200
H1 H 0.918500 0.081500 0.319200
H1 H 1.081500 0.418500 -0.180800
H1 H 1.180800 0.418500 -0.081500
H1 H 0.918500 0.319200 0.081500
H1 H 1.081500 0.319200 -0.081500
H1 H 0.918500 0.581500 -0.180800
H1 H 0.819200 0.581500 -0.081500
H1 H 0.819200 0.418500 0.081500
H1 H 0.581500 0.418500 0.319200
H1 H 0.680800 0.418500 0.418500
H1 H 0.418500 0.319200 0.581500
H1 H 0.418500 0.418500 0.680800
H1 H 0.418500 0.680800 0.418500
H1 H 0.319200 0.581500 0.418500
H1 H 0.581500 0.319200 0.418500
H1 H 0.418500 0.581500 0.319200
H1 H 0.319200 0.418500 0.581500
H1 H 0.418500 0.180800 -0.081500
H1 H 0.819200 0.081500 0.581500
H1 H 1.081500 0.581500 -0.180800
H1 H 0.680800 -0.081500 -0.081500
H1 H 1.081500 0.081500 0.319200
H1 H 1.081500 0.319200 0.081500
H3 H 0.577000 0.256800 0.147300
H3 H 0.647300 0.077000 0.256800
H3 H 0.756800 0.147300 0.077000
H3 H 0.756800 0.077000 0.147300
H3 H 0.577000 0.147300 0.256800
H3 H 0.647300 0.256800 0.077000
H3 H 0.923000 -0.256800 0.352700
H3 H 0.852700 -0.077000 0.243200
H3 H 0.743200 -0.147300 0.423000
H3 H 0.743200 -0.077000 0.352700
H3 H 0.923000 -0.147300 0.243200
H3 H 0.852700 -0.256800 0.423000
H3 H 0.923000 0.243200 -0.147300
H3 H 0.852700 0.423000 -0.256800
H3 H 0.743200 0.352700 -0.077000
H3 H 0.743200 0.423000 -0.147300
H3 H 0.923000 0.352700 -0.256800
H3 H 0.852700 0.243200 -0.077000
H3 H 0.423000 0.243200 0.352700
H3 H 0.352700 0.423000 0.243200
H3 H 0.243200 0.352700 0.423000
H3 H 0.243200 0.423000 0.352700
H3 H 0.423000 0.352700 0.243200
H3 H 0.352700 0.243200 0.423000
H3 H 0.577000 0.256800 -0.147300
H3 H 0.647300 0.077000 -0.256800
H3 H 0.577000 0.147300 -0.256800
H3 H 0.647300 0.256800 -0.077000
H3 H 0.423000 0.256800 0.147300
H3 H 0.352700 0.256800 0.077000
H3 H 0.352700 0.077000 0.256800
H3 H 0.423000 0.147300 0.256800
H3 H 0.647300 -0.077000 0.256800
H3 H 0.577000 -0.147300 0.256800
H3 H 0.756800 -0.147300 0.077000
H3 H 0.756800 -0.077000 0.147300
H3 H 0.756800 0.147300 -0.077000
H3 H 0.756800 0.077000 -0.147300
H3 H 0.923000 0.256800 0.352700
H3 H 0.743200 0.147300 0.423000
H3 H 0.743200 0.077000 0.352700
H3 H 0.852700 0.256800 0.423000
H3 H 0.743200 -0.147300 0.577000
H3 H 0.743200 -0.077000 0.647300
H3 H 0.923000 -0.256800 0.647300
H3 H 0.852700 -0.256800 0.577000
H3 H 1.077000 -0.256800 0.352700
H3 H 1.147300 -0.256800 0.423000
H3 H 1.147300 -0.077000 0.243200
H3 H 1.077000 -0.147300 0.243200
H3 H 0.852700 0.077000 0.243200
H3 H 0.923000 0.147300 0.243200
H3 H 1.147300 0.423000 -0.256800
H3 H 1.256800 0.352700 -0.077000
H3 H 1.256800 0.423000 -0.147300
H3 H 1.077000 0.352700 -0.256800
H3 H 0.923000 0.243200 0.147300
H3 H 0.852700 0.243200 0.077000
H3 H 1.077000 0.243200 -0.147300
H3 H 1.147300 0.243200 -0.077000
H3 H 0.852700 0.577000 -0.256800
H3 H 0.923000 0.647300 -0.256800
H3 H 0.743200 0.647300 -0.077000
H3 H 0.743200 0.577000 -0.147300
H3 H 0.743200 0.352700 0.077000
H3 H 0.743200 0.423000 0.147300
H3 H 0.647300 0.423000 0.243200
H3 H 0.756800 0.352700 0.423000
H3 H 0.756800 0.423000 0.352700
H3 H 0.577000 0.352700 0.243200
H3 H 0.423000 0.243200 0.647300
H3 H 0.352700 0.423000 0.756800
H3 H 0.423000 0.352700 0.756800
H3 H 0.352700 0.243200 0.577000
H3 H 0.423000 0.756800 0.352700
H3 H 0.243200 0.647300 0.423000
H3 H 0.243200 0.577000 0.352700
H3 H 0.352700 0.756800 0.423000
H3 H 0.577000 0.243200 0.352700
H3 H 0.647300 0.243200 0.423000
H3 H 0.352700 0.577000 0.243200
H3 H 0.423000 0.647300 0.243200
H3 H 0.243200 0.352700 0.577000
H3 H 0.243200 0.423000 0.647300
H3 H 0.423000 0.256800 -0.147300
H3 H 0.352700 0.256800 -0.077000
H3 H 0.743200 0.147300 0.577000
H3 H 0.743200 0.077000 0.647300
H3 H 1.147300 0.577000 -0.256800
H3 H 1.077000 0.647300 -0.256800
H3 H 0.756800 -0.147300 -0.077000
H3 H 0.756800 -0.077000 -0.147300
H3 H 1.147300 0.077000 0.243200
H3 H 1.077000 0.147300 0.243200
H3 H 1.077000 0.243200 0.147300
H3 H 1.147300 0.243200 0.077000
H5A H 0.614200 0.302200 0.146200
H5A H 0.646200 0.114200 0.302200
H5A H 0.802200 0.146200 0.114200
H5A H 0.885800 -0.302200 0.353800
H5A H 0.853800 -0.114200 0.197800
H5A H 0.697800 -0.146200 0.385800
H5A H 0.885800 0.197800 -0.146200
H5A H 0.853800 0.385800 -0.302200
H5A H 0.697800 0.353800 -0.114200
H5A H 0.353800 0.385800 0.197800
H5A H 0.197800 0.385800 0.353800
H5A H 0.353800 0.197800 0.385800
H5A H 0.614200 0.302200 -0.146200
H5A H 0.646200 0.114200 -0.302200
H5A H 0.385800 0.302200 0.146200
H5A H 0.385800 0.146200 0.302200
H5A H 0.646200 -0.114200 0.302200
H5A H 0.802200 -0.146200 0.114200
H5A H 0.802200 0.146200 -0.114200
H5A H 0.885800 0.302200 0.353800
H5A H 0.697800 0.146200 0.385800
H5A H 0.697800 -0.114200 0.646200
H5A H 0.853800 -0.302200 0.614200
H5A H 1.114200 -0.302200 0.353800
H5A H 1.146200 -0.114200 0.197800
H5A H 0.853800 0.114200 0.197800
H5A H 1.146200 0.385800 -0.302200
H5A H 1.302200 0.353800 -0.114200
H5A H 0.885800 0.197800 0.146200
H5A H 1.114200 0.197800 -0.146200
H5A H 0.885800 0.646200 -0.302200
H5A H 0.697800 0.646200 -0.114200
H5A H 0.697800 0.353800 0.114200
H5A H 0.646200 0.385800 0.197800
H5A H 0.802200 0.353800 0.385800
H5A H 0.385800 0.197800 0.646200
H5A H 0.353800 0.385800 0.802200
H5A H 0.385800 0.802200 0.353800
H5A H 0.197800 0.646200 0.385800
H5A H 0.614200 0.197800 0.353800
H5A H 0.353800 0.614200 0.197800
H5A H 0.197800 0.353800 0.614200
H5A H 0.385800 0.302200 -0.146200
H5A H 0.697800 0.146200 0.614200
H5A H 1.146200 0.614200 -0.302200
H5A H 0.802200 -0.114200 -0.146200
H5A H 1.114200 0.146200 0.197800
H5A H 1.146200 0.197800 0.114200
H5B H 0.650300 0.293100 0.133900
H5B H 0.633900 0.150300 0.293100
H5B H 0.793100 0.133900 0.150300
H5B H 0.849700 -0.293100 0.366100
H5B H 0.866100 -0.150300 0.206900
H5B H 0.706900 -0.133900 0.349700
H5B H 0.849700 0.206900 -0.133900
H5B H 0.866100 0.349700 -0.293100
H5B H 0.706900 0.366100 -0.150300
H5B H 0.366100 0.349700 0.206900
H5B H 0.206900 0.349700 0.366100
H5B H 0.366100 0.206900 0.349700
H5B H 0.650300 0.293100 -0.133900
H5B H 0.633900 0.150300 -0.293100
H5B H 0.349700 0.293100 0.133900
H5B H 0.349700 0.133900 0.293100
H5B H 0.633900 -0.150300 0.293100
H5B H 0.793100 -0.133900 0.150300
H5B H 0.793100 0.133900 -0.150300
H5B H 0.849700 0.293100 0.366100
H5B H 0.706900 0.133900 0.349700
H5B H 0.706900 -0.150300 0.633900
H5B H 0.866100 -0.293100 0.650300
H5B H 1.150300 -0.293100 0.366100
H5B H 1.133900 -0.150300 0.206900
H5B H 0.866100 0.150300 0.206900
H5B H 1.133900 0.349700 -0.293100
H5B H 1.293100 0.366100 -0.150300
H5B H 0.849700 0.206900 0.133900
H5B H 1.150300 0.206900 -0.133900
H5B H 0.849700 0.633900 -0.293100
H5B H 0.706900 0.633900 -0.150300
H5B H 0.706900 0.366100 0.150300
H5B H 0.633900 0.349700 0.206900
H5B H 0.793100 0.366100 0.349700
H5B H 0.349700 0.206900 0.633900
H5B H 0.366100 0.349700 0.793100
H5B H 0.349700 0.793100 0.366100
H5B H 0.206900 0.633900 0.349700
H5B H 0.650300 0.206900 0.366100
H5B H 0.366100 0.650300 0.206900
H5B H 0.206900 0.366100 0.650300
H5B H 0.349700 0.293100 -0.133900
H5B H 0.706900 0.133900 0.650300
H5B H 1.133900 0.650300 -0.293100
H5B H 0.793100 -0.150300 -0.133900
H5B H 1.150300 0.133900 0.206900
H5B H 1.133900 0.206900 0.150300
H5C H 0.625500 0.311800 0.109900
H5C H 0.609900 0.125500 0.311800
H5C H 0.811800 0.109900 0.125500
H5C H 0.874500 -0.311800 0.390100
H5C H 0.890100 -0.125500 0.188200
H5C H 0.688200 -0.109900 0.374500
H5C H 0.874500 0.188200 -0.109900
H5C H 0.890100 0.374500 -0.311800
H5C H 0.688200 0.390100 -0.125500
H5C H 0.390100 0.374500 0.188200
H5C H 0.188200 0.374500 0.390100
H5C H 0.390100 0.188200 0.374500
H5C H 0.625500 0.311800 -0.109900
H5C H 0.609900 0.125500 -0.311800
H5C H 0.374500 0.311800 0.109900
H5C H 0.374500 0.109900 0.311800
H5C H 0.609900 -0.125500 0.311800
H5C H 0.811800 -0.109900 0.125500
H5C H 0.811800 0.109900 -0.125500
H5C H 0.874500 0.311800 0.390100
H5C H 0.688200 0.109900 0.374500
H5C H 0.688200 -0.125500 0.609900
H5C H 0.890100 -0.311800 0.625500
H5C H 1.125500 -0.311800 0.390100
H5C H 1.109900 -0.125500 0.188200
H5C H 0.890100 0.125500 0.188200
H5C H 1.109900 0.374500 -0.311800
H5C H 1.311800 0.390100 -0.125500
H5C H 0.874500 0.188200 0.109900
H5C H 1.125500 0.188200 -0.109900
H5C H 0.874500 0.609900 -0.311800
H5C H 0.688200 0.609900 -0.125500
H5C H 0.688200 0.390100 0.125500
H5C H 0.609900 0.374500 0.188200
H5C H 0.811800 0.390100 0.374500
H5C H 0.374500 0.188200 0.609900
H5C H 0.390100 0.374500 0.811800
H5C H 0.374500 0.811800 0.390100
H5C H 0.188200 0.609900 0.374500
H5C H 0.625500 0.188200 0.390100
H5C H 0.390100 0.625500 0.188200
H5C H 0.188200 0.390100 0.625500
H5C H 0.374500 0.311800 -0.109900
H5C H 0.688200 0.109900 0.625500
H5C H 1.109900 0.625500 -0.311800
H5C H 0.811800 -0.125500 -0.109900
H5C H 1.125500 0.109900 0.188200
H5C H 1.109900 0.188200 0.125500
H7A H 0.535300 0.243050 0.292650
H7A H 0.464700 0.292650 0.243050
H7A H 0.464700 0.256950 0.207350
H7A H 0.756950 0.207350 -0.035300
H7A H 0.535300 0.207350 0.256950
H7A H 0.707350 0.256950 0.035300
H7A H 0.743050 0.292650 0.035300
H7A H 0.792650 0.243050 -0.035300
H7A H 0.756950 -0.292650 0.464700
H7A H 0.707350 -0.243050 0.535300
H7A H 0.707350 0.035300 0.256950
H7A H 0.756950 -0.035300 0.207350
H7A H 0.792650 -0.035300 0.243050
H7A H 0.743050 -0.207350 0.535300
H7A H 0.743050 0.035300 0.292650
H7A H 0.792650 -0.256950 0.464700
H7A H 0.707350 0.464700 -0.243050
H7A H 0.756950 0.535300 -0.292650
H7A H 0.964700 0.243050 -0.207350
H7A H 0.792650 0.535300 -0.256950
H7A H 0.743050 0.464700 -0.207350
H7A H 1.035300 0.292650 -0.256950
H7A H 1.035300 0.256950 -0.292650
H7A H 0.964700 0.207350 -0.243050
H7A H 0.464700 0.243050 -0.292650
H7A H 0.535300 0.292650 -0.243050
H7A H 0.535300 0.256950 -0.207350
H7A H 0.464700 0.207350 -0.256950
H7A H 0.756950 0.292650 0.464700
H7A H 0.707350 0.243050 0.535300
H7A H 0.743050 0.207350 0.535300
H7A H 0.792650 0.256950 0.464700
H7A H 0.707350 0.464700 0.243050
H7A H 0.756950 0.535300 0.292650
H7A H 0.792650 0.535300 0.256950
H7A H 0.743050 0.464700 0.207350
H7A H 0.707350 -0.035300 -0.256950
H7A H 0.756950 0.035300 -0.207350
H7A H 0.792650 0.035300 -0.243050
H7A H 0.743050 -0.035300 -0.292650
H7A H 0.243050 0.207350 -0.035300
H7A H 0.292650 0.256950 0.035300
H7A H 0.256950 0.292650 0.035300
H7A H 0.207350 0.243050 -0.035300
H7A H 1.035300 0.243050 0.207350
H7A H 0.964700 0.292650 0.256950
H7A H 0.964700 0.256950 0.292650
H7A H 1.035300 0.207350 0.243050
H7B H 0.487350 0.233750 0.301850
H7B H 0.512650 0.301850 0.233750
H7B H 0.512650 0.266250 0.198150
H7B H 0.766250 0.198150 0.012650
H7B H 0.487350 0.198150 0.266250
H7B H 0.698150 0.266250 -0.012650
H7B H 0.733750 0.301850 -0.012650
H7B H 0.801850 0.233750 0.012650
H7B H 0.766250 -0.301850 0.512650
H7B H 0.698150 -0.233750 0.487350
H7B H 0.698150 -0.012650 0.266250
H7B H 0.766250 0.012650 0.198150
H7B H 0.801850 0.012650 0.233750
H7B H 0.733750 -0.198150 0.487350
H7B H 0.733750 -0.012650 0.301850
H7B H 0.801850 -0.266250 0.512650
H7B H 0.698150 0.512650 -0.233750
H7B H 0.766250 0.487350 -0.301850
H7B H 1.012650 0.233750 -0.198150
H7B H 0.801850 0.487350 -0.266250
H7B H 0.733750 0.512650 -0.198150
H7B H 0.987350 0.301850 -0.266250
H7B H 0.987350 0.266250 -0.301850
H7B H 1.012650 0.198150 -0.233750
H7B H 0.512650 0.233750 -0.301850
H7B H 0.487350 0.301850 -0.233750
H7B H 0.487350 0.266250 -0.198150
H7B H 0.512650 0.198150 -0.266250
H7B H 0.766250 0.301850 0.512650
H7B H 0.698150 0.233750 0.487350
H7B H 0.733750 0.198150 0.487350
H7B H 0.801850 0.266250 0.512650
H7B H 0.698150 0.512650 0.233750
H7B H 0.766250 0.487350 0.301850
H7B H 0.801850 0.487350 0.266250
H7B H 0.733750 0.512650 0.198150
H7B H 0.698150 0.012650 -0.266250
H7B H 0.766250 -0.012650 -0.198150
H7B H 0.801850 -0.012650 -0.233750
H7B H 0.733750 0.012650 -0.301850
H7B H 0.233750 0.198150 0.012650
H7B H 0.301850 0.266250 -0.012650
H7B H 0.266250 0.301850 -0.012650
H7B H 0.198150 0.233750 0.012650
H7B H 0.987350 0.233750 0.198150
H7B H 1.012650 0.301850 0.266250
H7B H 1.012650 0.266250 0.301850
H7B H 0.987350 0.198150 0.233750
H9 H 0.451900 0.258600 0.277050
H9 H 0.548100 0.277050 0.258600
H9 H 0.548100 0.241400 0.222950
H9 H 0.741400 0.222950 0.048100
H9 H 0.451900 0.222950 0.241400
H9 H 0.722950 0.241400 -0.048100
H9 H 0.758600 0.277050 -0.048100
H9 H 0.777050 0.258600 0.048100
H9 H 0.741400 -0.277050 0.548100
H9 H 0.722950 -0.258600 0.451900
H9 H 0.722950 -0.048100 0.241400
H9 H 0.741400 0.048100 0.222950
H9 H 0.777050 0.048100 0.258600
H9 H 0.758600 -0.222950 0.451900
H9 H 0.758600 -0.048100 0.277050
H9 H 0.777050 -0.241400 0.548100
H9 H 0.722950 0.548100 -0.258600
H9 H 0.741400 0.451900 -0.277050
H9 H 1.048100 0.258600 -0.222950
H9 H 0.777050 0.451900 -0.241400
H9 H 0.758600 0.548100 -0.222950
H9 H 0.951900 0.277050 -0.241400
H9 H 0.951900 0.241400 -0.277050
H9 H 1.048100 0.222950 -0.258600
H9 H 0.548100 0.258600 -0.277050
H9 H 0.451900 0.277050 -0.258600
H9 H 0.451900 0.241400 -0.222950
H9 H 0.548100 0.222950 -0.241400
H9 H 0.741400 0.277050 0.548100
H9 H 0.722950 0.258600 0.451900
H9 H 0.758600 0.222950 0.451900
H9 H 0.777050 0.241400 0.548100
H9 H 0.722950 0.548100 0.258600
H9 H 0.741400 0.451900 0.277050
H9 H 0.777050 0.451900 0.241400
H9 H 0.758600 0.548100 0.222950
H9 H 0.722950 0.048100 -0.241400
H9 H 0.741400 -0.048100 -0.222950
H9 H 0.777050 -0.048100 -0.258600
H9 H 0.758600 0.048100 -0.277050
H9 H 0.258600 0.222950 0.048100
H9 H 0.277050 0.241400 -0.048100
H9 H 0.241400 0.277050 -0.048100
H9 H 0.222950 0.258600 0.048100
H9 H 0.951900 0.258600 0.222950
H9 H 1.048100 0.277050 0.241400
H9 H 1.048100 0.241400 0.277050
H9 H 0.951900 0.222950 0.258600
N1 N 0.5000(7) 0.2711(5) 0.2711(7)
N1 N 0.5000(7) 0.2289(5) 0.2289(7)
N1 N 0.7289(5) 0.2289(7) 0.0000(7)
N1 N 0.7711(5) 0.2711(7) 0.0000(7)
N1 N 0.7289(5) -0.2711(7) 0.5000(7)
N1 N 0.7289(7) 0.0000(7) 0.2289(5)
N1 N 0.7711(7) 0.0000(7) 0.2711(5)
N1 N 0.7711(5) -0.2289(7) 0.5000(7)
N1 N 0.7289(7) 0.5000(7) -0.2711(5)
N1 N 1.0000(7) 0.2711(5) -0.2289(7)
N1 N 0.7711(7) 0.5000(7) -0.2289(5)
N1 N 1.0000(7) 0.2289(5) -0.2711(7)
N1 N 0.5000(7) 0.2710(5) -0.2711(7)
N1 N 0.5000(7) 0.2290(5) -0.2290(7)
N1 N 0.7290(5) 0.2711(7) 0.5000(7)
N1 N 0.7710(5) 0.2290(7) 0.5000(7)
N1 N 0.7289(7) 0.5000(7) 0.2710(5)
N1 N 0.7710(7) 0.5000(7) 0.2290(5)
N1 N 0.7289(7) 0.0000(7) -0.2290(5)
N1 N 0.7711(7) 0.0000(7) -0.2710(5)
N1 N 0.2710(5) 0.2289(7) 0.0000(7)
N1 N 0.2290(5) 0.2711(7) 0.0000(7)
N1 N 1.0000(7) 0.2710(5) 0.2289(7)
N1 N 1.0000(7) 0.2290(5) 0.2711(7)
O1 O 0.53571(6) 0.17185(6) 0.12178(6)
O1 O 0.62178(6) 0.03571(6) 0.17185(6)
O1 O 0.67185(6) 0.12178(6) 0.03571(6)
O1 O 0.67185(6) 0.03571(6) 0.12178(6)
O1 O 0.53571(6) 0.12178(6) 0.17185(6)
O1 O 0.62178(6) 0.17185(6) 0.03571(6)
O1 O 0.96429(6) -0.17185(6) 0.37822(6)
O1 O 0.87822(6) -0.03571(6) 0.32815(6)
O1 O 0.82815(6) -0.12178(6) 0.46429(6)
O1 O 0.82815(6) -0.03571(6) 0.37822(6)
O1 O 0.96429(6) -0.12178(6) 0.32815(6)
O1 O 0.87822(6) -0.17185(6) 0.46429(6)
O1 O 0.96429(6) 0.32815(6) -0.12178(6)
O1 O 0.87822(6) 0.46429(6) -0.17185(6)
O1 O 0.82815(6) 0.37822(6) -0.03571(6)
O1 O 0.82815(6) 0.46429(6) -0.12178(6)
O1 O 0.96429(6) 0.37822(6) -0.17185(6)
O1 O 0.87822(6) 0.32815(6) -0.03571(6)
O1 O 0.46429(6) 0.32815(6) 0.37822(6)
O1 O 0.37822(6) 0.46429(6) 0.32815(6)
O1 O 0.32815(6) 0.37822(6) 0.46429(6)
O1 O 0.32815(6) 0.46429(6) 0.37822(6)
O1 O 0.46429(6) 0.37822(6) 0.32815(6)
O1 O 0.37822(6) 0.32815(6) 0.46429(6)
O1 O 0.53571(6) 0.17185(6) -0.12178(6)
O1 O 0.62178(6) 0.03571(6) -0.17185(6)
O1 O 0.53571(6) 0.12178(6) -0.17185(6)
O1 O 0.62178(6) 0.17185(6) -0.03571(6)
O1 O 0.46429(6) 0.17185(6) 0.12178(6)
O1 O 0.37822(6) 0.17185(6) 0.03571(6)
O1 O 0.37822(6) 0.03571(6) 0.17185(6)
O1 O 0.46429(6) 0.12178(6) 0.17185(6)
O1 O 0.62178(6) -0.03571(6) 0.17185(6)
O1 O 0.53571(6) -0.12178(6) 0.17185(6)
O1 O 0.67185(6) -0.12178(6) 0.03571(6)
O1 O 0.67185(6) -0.03571(6) 0.12178(6)
O1 O 0.67185(6) 0.12178(6) -0.03571(6)
O1 O 0.67185(6) 0.03571(6) -0.12178(6)
O1 O 0.96429(6) 0.17185(6) 0.37822(6)
O1 O 0.82815(6) 0.12178(6) 0.46429(6)
O1 O 0.82815(6) 0.03571(6) 0.37822(6)
O1 O 0.87822(6) 0.17185(6) 0.46429(6)
O1 O 0.82815(6) -0.12178(6) 0.53571(6)
O1 O 0.82815(6) -0.03571(6) 0.62178(6)
O1 O 0.96429(6) -0.17185(6) 0.62178(6)
O1 O 0.87822(6) -0.17185(6) 0.53571(6)
O1 O 1.03571(6) -0.17185(6) 0.37822(6)
O1 O 1.12178(6) -0.17185(6) 0.46429(6)
O1 O 1.12178(6) -0.03571(6) 0.32815(6)
O1 O 1.03571(6) -0.12178(6) 0.32815(6)
O1 O 0.87822(6) 0.03571(6) 0.32815(6)
O1 O 0.96429(6) 0.12178(6) 0.32815(6)
O1 O 1.12178(6) 0.46429(6) -0.17185(6)
O1 O 1.17185(6) 0.37822(6) -0.03571(6)
O1 O 1.17185(6) 0.46429(6) -0.12178(6)
O1 O 1.03571(6) 0.37822(6) -0.17185(6)
O1 O 0.96429(6) 0.32815(6) 0.12178(6)
O1 O 0.87822(6) 0.32815(6) 0.03571(6)
O1 O 1.03571(6) 0.32815(6) -0.12178(6)
O1 O 1.12178(6) 0.32815(6) -0.03571(6)
O1 O 0.87822(6) 0.53571(6) -0.17185(6)
O1 O 0.96429(6) 0.62178(6) -0.17185(6)
O1 O 0.82815(6) 0.62178(6) -0.03571(6)
O1 O 0.82815(6) 0.53571(6) -0.12178(6)
O1 O 0.82815(6) 0.37822(6) 0.03571(6)
O1 O 0.82815(6) 0.46429(6) 0.12178(6)
O1 O 0.62178(6) 0.46429(6) 0.32815(6)
O1 O 0.67185(6) 0.37822(6) 0.46429(6)
O1 O 0.67185(6) 0.46429(6) 0.37822(6)
O1 O 0.53571(6) 0.37822(6) 0.32815(6)
O1 O 0.46429(6) 0.32815(6) 0.62178(6)
O1 O 0.37822(6) 0.46429(6) 0.67185(6)
O1 O 0.46429(6) 0.37822(6) 0.67185(6)
O1 O 0.37822(6) 0.32815(6) 0.53571(6)
O1 O 0.46429(6) 0.67185(6) 0.37822(6)
O1 O 0.32815(6) 0.62178(6) 0.46429(6)
O1 O 0.32815(6) 0.53571(6) 0.37822(6)
O1 O 0.37822(6) 0.67185(6) 0.46429(6)
O1 O 0.53571(6) 0.32815(6) 0.37822(6)
O1 O 0.62178(6) 0.32815(6) 0.46429(6)
O1 O 0.37822(6) 0.53571(6) 0.32815(6)
O1 O 0.46429(6) 0.62178(6) 0.32815(6)
O1 O 0.32815(6) 0.37822(6) 0.53571(6)
O1 O 0.32815(6) 0.46429(6) 0.62178(6)
O1 O 0.46429(6) 0.17185(6) -0.12178(6)
O1 O 0.37822(6) 0.17185(6) -0.03571(6)
O1 O 0.82815(6) 0.12178(6) 0.53571(6)
O1 O 0.82815(6) 0.03571(6) 0.62178(6)
O1 O 1.12178(6) 0.53571(6) -0.17185(6)
O1 O 1.03571(6) 0.62178(6) -0.17185(6)
O1 O 0.67185(6) -0.12178(6) -0.03571(6)
O1 O 0.67185(6) -0.03571(6) -0.12178(6)
O1 O 1.12178(6) 0.03571(6) 0.32815(6)
O1 O 1.03571(6) 0.12178(6) 0.32815(6)
O1 O 1.03571(6) 0.32815(6) 0.12178(6)
O1 O 1.12178(6) 0.32815(6) 0.03571(6)
O2 O 0.53565(6) 0.21128(6) 0.16107(6)
O2 O 0.66107(6) 0.03565(6) 0.21128(6)
O2 O 0.71128(6) 0.16107(6) 0.03565(6)
O2 O 0.71128(6) 0.03565(6) 0.16107(6)
O2 O 0.53565(6) 0.16107(6) 0.21128(6)
O2 O 0.66107(6) 0.21128(6) 0.03565(6)
O2 O 0.96435(6) -0.21128(6) 0.33893(6)
O2 O 0.83893(6) -0.03565(6) 0.28872(6)
O2 O 0.78872(6) -0.16107(6) 0.46435(6)
O2 O 0.78872(6) -0.03565(6) 0.33893(6)
O2 O 0.96435(6) -0.16107(6) 0.28872(6)
O2 O 0.83893(6) -0.21128(6) 0.46435(6)
O2 O 0.96435(6) 0.28872(6) -0.16107(6)
O2 O 0.83893(6) 0.46435(6) -0.21128(6)
O2 O 0.78872(6) 0.33893(6) -0.03565(6)
O2 O 0.78872(6) 0.46435(6) -0.16107(6)
O2 O 0.96435(6) 0.33893(6) -0.21128(6)
O2 O 0.83893(6) 0.28872(6) -0.03565(6)
O2 O 0.46435(6) 0.28872(6) 0.33893(6)
O2 O 0.33893(6) 0.46435(6) 0.28872(6)
O2 O 0.28872(6) 0.33893(6) 0.46435(6)
O2 O 0.28872(6) 0.46435(6) 0.33893(6)
O2 O 0.46435(6) 0.33893(6) 0.28872(6)
O2 O 0.33893(6) 0.28872(6) 0.46435(6)
O2 O 0.53565(6) 0.21128(6) -0.16107(6)
O2 O 0.66107(6) 0.03565(6) -0.21128(6)
O2 O 0.53565(6) 0.16107(6) -0.21128(6)
O2 O 0.66107(6) 0.21128(6) -0.03565(6)
O2 O 0.46435(6) 0.21128(6) 0.16107(6)
O2 O 0.33893(6) 0.21128(6) 0.03565(6)
O2 O 0.33893(6) 0.03565(6) 0.21128(6)
O2 O 0.46435(6) 0.16107(6) 0.21128(6)
O2 O 0.66107(6) -0.03565(6) 0.21128(6)
O2 O 0.53565(6) -0.16107(6) 0.21128(6)
O2 O 0.71128(6) -0.16107(6) 0.03565(6)
O2 O 0.71128(6) -0.03565(6) 0.16107(6)
O2 O 0.71128(6) 0.16107(6) -0.03565(6)
O2 O 0.71128(6) 0.03565(6) -0.16107(6)
O2 O 0.96435(6) 0.21128(6) 0.33893(6)
O2 O 0.78872(6) 0.16107(6) 0.46435(6)
O2 O 0.78872(6) 0.03565(6) 0.33893(6)
O2 O 0.83893(6) 0.21128(6) 0.46435(6)
O2 O 0.78872(6) -0.16107(6) 0.53565(6)
O2 O 0.78872(6) -0.03565(6) 0.66107(6)
O2 O 0.96435(6) -0.21128(6) 0.66107(6)
O2 O 0.83893(6) -0.21128(6) 0.53565(6)
O2 O 1.03565(6) -0.21128(6) 0.33893(6)
O2 O 1.16107(6) -0.21128(6) 0.46435(6)
O2 O 1.16107(6) -0.03565(6) 0.28872(6)
O2 O 1.03565(6) -0.16107(6) 0.28872(6)
O2 O 0.83893(6) 0.03565(6) 0.28872(6)
O2 O 0.96435(6) 0.16107(6) 0.28872(6)
O2 O 1.16107(6) 0.46435(6) -0.21128(6)
O2 O 1.21128(6) 0.33893(6) -0.03565(6)
O2 O 1.21128(6) 0.46435(6) -0.16107(6)
O2 O 1.03565(6) 0.33893(6) -0.21128(6)
O2 O 0.96435(6) 0.28872(6) 0.16107(6)
O2 O 0.83893(6) 0.28872(6) 0.03565(6)
O2 O 1.03565(6) 0.28872(6) -0.16107(6)
O2 O 1.16107(6) 0.28872(6) -0.03565(6)
O2 O 0.83893(6) 0.53565(6) -0.21128(6)
O2 O 0.96435(6) 0.66107(6) -0.21128(6)
O2 O 0.78872(6) 0.66107(6) -0.03565(6)
O2 O 0.78872(6) 0.53565(6) -0.16107(6)
O2 O 0.78872(6) 0.33893(6) 0.03565(6)
O2 O 0.78872(6) 0.46435(6) 0.16107(6)
O2 O 0.66107(6) 0.46435(6) 0.28872(6)
O2 O 0.71128(6) 0.33893(6) 0.46435(6)
O2 O 0.71128(6) 0.46435(6) 0.33893(6)
O2 O 0.53565(6) 0.33893(6) 0.28872(6)
O2 O 0.46435(6) 0.28872(6) 0.66107(6)
O2 O 0.33893(6) 0.46435(6) 0.71128(6)
O2 O 0.46435(6) 0.33893(6) 0.71128(6)
O2 O 0.33893(6) 0.28872(6) 0.53565(6)
O2 O 0.46435(6) 0.71128(6) 0.33893(6)
O2 O 0.28872(6) 0.66107(6) 0.46435(6)
O2 O 0.28872(6) 0.53565(6) 0.33893(6)
O2 O 0.33893(6) 0.71128(6) 0.46435(6)
O2 O 0.53565(6) 0.28872(6) 0.33893(6)
O2 O 0.66107(6) 0.28872(6) 0.46435(6)
O2 O 0.33893(6) 0.53565(6) 0.28872(6)
O2 O 0.46435(6) 0.66107(6) 0.28872(6)
O2 O 0.28872(6) 0.33893(6) 0.53565(6)
O2 O 0.28872(6) 0.46435(6) 0.66107(6)
O2 O 0.46435(6) 0.21128(6) -0.16107(6)
O2 O 0.33893(6) 0.21128(6) -0.03565(6)
O2 O 0.78872(6) 0.16107(6) 0.53565(6)
O2 O 0.78872(6) 0.03565(6) 0.66107(6)
O2 O 1.16107(6) 0.53565(6) -0.21128(6)
O2 O 1.03565(6) 0.66107(6) -0.21128(6)
O2 O 0.71128(6) -0.16107(6) -0.03565(6)
O2 O 0.71128(6) -0.03565(6) -0.16107(6)
O2 O 1.16107(6) 0.03565(6) 0.28872(6)
O2 O 1.03565(6) 0.16107(6) 0.28872(6)
O2 O 1.03565(6) 0.28872(6) 0.16107(6)
O2 O 1.16107(6) 0.28872(6) 0.03565(6)

#END
