
#######################################################################
#
#                 Cambridge Crystallographic Data Centre
#                                CCDC 
#
#######################################################################
#
# If this CIF has been generated from an entry in the Cambridge 
# Structural Database, then it will include bibliographic, chemical, 
# crystal, experimental, refinement or atomic coordinate data resulting 
# from the CCDC's data processing and validation procedures.
#
#######################################################################

data_eric260_sq
_symmetry_cell_setting           monoclinic
_symmetry_space_group_name_H-M   'P 21/n'
_symmetry_Int_Tables_number      14
_space_group_name_Hall           '-P 2yn'
loop_
_symmetry_equiv_pos_site_id
_symmetry_equiv_pos_as_xyz
1 x,y,z
2 1/2-x,1/2+y,1/2-z
3 -x,-y,-z
4 1/2+x,1/2-y,1/2+z
_cell_length_a                   29.5260(9)
_cell_length_b                   29.7496(10)
_cell_length_c                   42.4158(14)
_cell_angle_alpha                90
_cell_angle_beta                 90.473(2)
_cell_angle_gamma                90
_cell_volume                     37256.2
loop_
_atom_site_label
_atom_site_type_symbol
_atom_site_fract_x
_atom_site_fract_y
_atom_site_fract_z
Mo1 Mo 0.34872(2) 0.35221(2) 0.36094(2)
Mo2 Mo 0.31047(2) 0.31503(2) 0.32773(2)
Mo3 Mo 0.63628(2) 0.36069(2) 0.35046(2)
Mo4 Mo 0.67048(2) 0.32548(2) 0.31461(2)
Mo5 Mo 0.50856(2) 0.21356(2) 0.50032(2)
Mo6 Mo 0.51105(2) 0.14256(2) 0.50040(2)
Mo7 Mo 0.33908(2) 0.63851(2) 0.36084(2)
Mo8 Mo 0.29870(2) 0.67314(2) 0.32755(2)
Mo9 Mo 0.62668(2) 0.64673(2) 0.34984(2)
Mo10 Mo 0.65891(2) 0.68370(2) 0.31398(2)
Mo11 Mo 0.78677(2) 0.50857(2) 0.48901(2)
Mo12 Mo 0.85807(2) 0.51152(2) 0.48642(2)
O1_1 O 0.40826(14) 0.34487(15) 0.33483(10)
O2_1 O 0.36826(14) 0.30601(15) 0.29935(10)
O3_1 O 0.57284(13) 0.34969(14) 0.32891(10)
O4_1 O 0.60898(14) 0.31233(14) 0.29089(10)
C1_1 C 0.4053(2) 0.3224(2) 0.30938(16)
C2_1 C 0.4891(2) 0.3257(2) 0.30465(16)
H2_1 H 0.490365 0.339912 0.324701
C3_1 C 0.4478(2) 0.3138(2) 0.29125(16)
C4_1 C 0.4454(2) 0.2939(3) 0.26157(17)
H4_1 H 0.416809 0.285890 0.252752
C5_1 C 0.4849(3) 0.2857(3) 0.24488(19)
C6_1 C 0.5257(2) 0.2960(3) 0.25892(17)
H6_1 H 0.552912 0.288903 0.248210
C7_1 C 0.5284(2) 0.3166(2) 0.28841(16)
C8_1 C 0.5724(2) 0.3267(2) 0.30299(15)
C9_1 C 0.4828(3) 0.2661(3) 0.21169(18)
C10_1 C 0.5270(2) 0.2675(4) 0.1934(2)
H10A_1 H 0.520715 0.262354 0.170991
H10B_1 H 0.547420 0.244034 0.201358
H10C_1 H 0.541275 0.296977 0.196189
C11_1 C 0.4678(4) 0.2172(3) 0.2155(3)
H11A_1 H 0.457895 0.205359 0.195061
H11B_1 H 0.442730 0.215719 0.230460
H11C_1 H 0.493292 0.199306 0.223520
C12_1 C 0.4474(3) 0.2906(4) 0.1915(2)
H12A_1 H 0.442549 0.274056 0.171741
H12B_1 H 0.458198 0.320988 0.186706
H12C_1 H 0.418832 0.292459 0.202979
O1_2 O 0.36625(15) 0.29318(15) 0.38583(10)
O2_2 O 0.32548(15) 0.25414(15) 0.35104(11)
O3_2 O 0.45621(15) 0.21413(14) 0.46639(11)
O4_2 O 0.45845(16) 0.13939(14) 0.46629(12)
C1_2 C 0.3510(2) 0.2561(2) 0.37520(16)
C2_2 C 0.3949(3) 0.2153(2) 0.41590(18)
H2_2 H 0.408187 0.243086 0.422089
C3_2 C 0.3637(3) 0.2145(2) 0.39231(19)
C4_2 C 0.3433(3) 0.1741(3) 0.3836(2)
H4_2 H 0.321162 0.173888 0.367218
C5_2 C 0.3551(4) 0.1339(3) 0.3986(2)
C6_2 C 0.3879(3) 0.1352(3) 0.4218(2)
H6_2 H 0.397220 0.108010 0.431604
C7_2 C 0.4077(3) 0.1758(2) 0.43114(19)
C8_2 C 0.4429(2) 0.1764(2) 0.45571(18)
C9_2 C 0.3318(3) 0.0875(3) 0.3913(2)
C10_2 C 0.3194(4) 0.0616(4) 0.42134(19)
H10A_2 H 0.291967 0.043873 0.417496
H10B_2 H 0.314104 0.082887 0.438536
H10C_2 H 0.344415 0.041440 0.427166
C11_2 C 0.3648(4) 0.0570(4) 0.3735(3)
H11A_2 H 0.366068 0.027526 0.383762
H11B_2 H 0.395073 0.070616 0.373805
H11C_2 H 0.354469 0.053491 0.351653
C12_2 C 0.2871(4) 0.0945(4) 0.3735(3)
H12A_2 H 0.269757 0.066372 0.373442
H12B_2 H 0.293317 0.103463 0.351719
H12C_2 H 0.269471 0.118064 0.383879
O1_3 O 0.3333(2) 0.41298(15) 0.33804(12)
O2_3 O 0.2943(2) 0.37419(16) 0.30259(12)
O3_3 O 0.32804(19) 0.57668(15) 0.33752(11)
O4_3 O 0.28656(19) 0.61339(15) 0.30231(12)
C1_3 C 0.3083(3) 0.4115(2) 0.31337(19)
C2_3 C 0.3052(2) 0.4944(3) 0.3122(2)
H2_3 H 0.316972 0.494939 0.333124
C3_3 C 0.2978(3) 0.4541(3) 0.2972(2)
C4_3 C 0.2816(3) 0.4533(3) 0.2670(2)
H4_3 H 0.277267 0.425048 0.256939
C5_3 C 0.2705(4) 0.4943(4) 0.2498(2)
C6_3 C 0.2787(3) 0.5344(3) 0.2661(2)
H6_3 H 0.272806 0.562222 0.255978
C7_3 C 0.2953(3) 0.5344(3) 0.2968(2)
C8_3 C 0.3041(3) 0.5770(2) 0.31350(18)
C9_3 C 0.2547(3) 0.4878(3) 0.2147(2)
C10_3 C 0.2117(3) 0.4589(4) 0.2158(3)
H10A_3 H 0.196440 0.459713 0.195228
H10B_3 H 0.191303 0.470797 0.231945
H10C_3 H 0.219790 0.427837 0.221043
C11_3 C 0.2901(3) 0.4584(3) 0.1975(3)
H11A_3 H 0.279123 0.451565 0.176158
H11B_3 H 0.294678 0.430300 0.209169
H11C_3 H 0.318865 0.474700 0.196258
C12_3 C 0.2590(5) 0.5344(3) 0.1997(3)
H12A_3 H 0.257155 0.531542 0.176670
H12B_3 H 0.288154 0.547713 0.205645
H12C_3 H 0.234339 0.553652 0.207047
O1_4 O 0.64394(15) 0.42173(14) 0.32648(10)
O2_4 O 0.67918(15) 0.38454(14) 0.28816(10)
O3_4 O 0.63889(16) 0.58577(14) 0.32606(11)
O4_4 O 0.67236(16) 0.62467(14) 0.28789(11)
C1_4 C 0.6649(2) 0.4210(2) 0.30006(16)
C2_4 C 0.6620(3) 0.5040(2) 0.29836(18)
H2_4 H 0.649515 0.503597 0.318940
C3_4 C 0.6722(3) 0.4646(2) 0.28338(17)
C4_4 C 0.6889(3) 0.4645(3) 0.25336(19)
H4_4 H 0.694746 0.436799 0.243046
C5_4 C 0.6971(4) 0.5045(3) 0.2380(2)
C6_4 C 0.6864(3) 0.5446(3) 0.2533(2)
H6_4 H 0.690697 0.572335 0.242619
C7_4 C 0.6700(3) 0.5445(2) 0.28318(18)
C8_4 C 0.6599(2) 0.5876(2) 0.30003(17)
C9_4 C 0.7193(3) 0.5043(2) 0.2046(2)
C10_4 C 0.7035(3) 0.5460(3) 0.1863(2)
H10A_4 H 0.718895 0.547063 0.165872
H10B_4 H 0.710959 0.573111 0.198372
H10C_4 H 0.670719 0.544480 0.182789
C11_4 C 0.7091(4) 0.4616(3) 0.1857(2)
H11A_4 H 0.729321 0.460086 0.167496
H11B_4 H 0.677571 0.462220 0.178318
H11C_4 H 0.713944 0.435185 0.199093
C12_4 C 0.7714(3) 0.5074(3) 0.2061(3)
H12A_4 H 0.783930 0.497860 0.185827
H12B_4 H 0.782874 0.487790 0.222876
H12C_4 H 0.780365 0.538503 0.210399
O1_5 O 0.69732(14) 0.37428(17) 0.37431(10)
O2_5 O 0.73358(15) 0.33699(17) 0.33663(11)
O3_5 O 0.78375(13) 0.45888(19) 0.45349(11)
O4_5 O 0.85906(14) 0.46138(19) 0.45106(11)
C1_5 C 0.7343(2) 0.3601(3) 0.36232(17)
C2_5 C 0.7789(2) 0.4009(3) 0.40266(18)
H2_5 H 0.751644 0.413863 0.410128
C3_5 C 0.7776(2) 0.3706(3) 0.37817(19)
C4_5 C 0.8166(3) 0.3491(4) 0.3685(2)
H4_5 H 0.814488 0.327425 0.352098
C5_5 C 0.8589(3) 0.3580(4) 0.3819(2)
C6_5 C 0.8591(3) 0.3909(4) 0.4063(2)
H6_5 H 0.887075 0.398544 0.416143
C7_5 C 0.8196(2) 0.4124(3) 0.41636(19)
C8_5 C 0.8214(2) 0.4458(3) 0.44160(17)
C9_5 C 0.8983(3) 0.3223(3) 0.37506(19)
C10_5 C 0.9130(4) 0.3425(4) 0.3434(3)
H10A_5 H 0.928149 0.319377 0.330900
H10B_5 H 0.933937 0.367499 0.347309
H10C_5 H 0.886297 0.353511 0.331950
C11_5 C 0.9321(3) 0.3187(4) 0.4026(2)
H11A_5 H 0.932481 0.287750 0.410569
H11B_5 H 0.923043 0.339138 0.419531
H11C_5 H 0.962461 0.326821 0.395344
C12_5 C 0.8856(4) 0.2730(3) 0.3673(3)
H12A_5 H 0.908050 0.252751 0.376812
H12B_5 H 0.885183 0.268788 0.344375
H12C_5 H 0.855599 0.266275 0.375770
O1_6 O 0.68764(14) 0.63772(16) 0.37446(11)
O2_6 O 0.72231(14) 0.67636(16) 0.33664(11)
O3_6 O 0.77936(14) 0.55869(18) 0.45456(11)
O4_6 O 0.85474(14) 0.56208(18) 0.45166(11)
C1_6 C 0.7233(2) 0.6549(3) 0.36251(17)
C2_6 C 0.7698(2) 0.6176(3) 0.40349(18)
H2_6 H 0.743654 0.601760 0.410142
C3_6 C 0.7670(2) 0.6484(3) 0.37922(19)
C4_6 C 0.8042(2) 0.6745(3) 0.3712(2)
H4_6 H 0.801327 0.696363 0.354947
C5_6 C 0.8459(3) 0.6691(3) 0.3867(2)
C6_6 C 0.8482(3) 0.6353(3) 0.4093(2)
H6_6 H 0.876534 0.629362 0.419167
C7_6 C 0.8113(2) 0.6101(3) 0.41802(19)
C8_6 C 0.8155(2) 0.5746(3) 0.44315(18)
C9_6 C 0.8883(2) 0.6913(3) 0.37381(18)
C10_6 C 0.9057(4) 0.6668(3) 0.3440(2)
H10A_6 H 0.919256 0.688761 0.329693
H10B_6 H 0.880353 0.651725 0.333402
H10C_6 H 0.928537 0.644505 0.350199
C11_6 C 0.9282(3) 0.6909(4) 0.3969(2)
H11A_6 H 0.954725 0.704287 0.386908
H11B_6 H 0.935022 0.659851 0.403045
H11C_6 H 0.920344 0.708322 0.415741
C12_6 C 0.8778(3) 0.7393(3) 0.3628(3)
H12A_6 H 0.906088 0.754579 0.357306
H12B_6 H 0.862779 0.755804 0.379729
H12C_6 H 0.857845 0.738236 0.344205
O1_7 O 0.29215(14) 0.36181(16) 0.38991(11)
O2_7 O 0.25120(15) 0.32143(17) 0.35531(12)
O3_7 O 0.21474(13) 0.44203(15) 0.47566(11)
O4_7 O 0.13918(13) 0.43843(15) 0.47850(11)
C1_7 C 0.2550(2) 0.3443(3) 0.38032(18)
C2_7 C 0.2154(2) 0.3831(3) 0.42446(18)
H2_7 H 0.242790 0.397998 0.429964
C3_7 C 0.2140(2) 0.3523(3) 0.40002(19)
C4_7 C 0.1742(3) 0.3299(3) 0.3925(2)
H4_7 H 0.173643 0.309828 0.375094
C5_7 C 0.1346(3) 0.3364(3) 0.4102(2)
C6_7 C 0.1368(3) 0.3685(3) 0.4342(2)
H6_7 H 0.110539 0.374571 0.446320
C7_7 C 0.1762(2) 0.3916(3) 0.44055(19)
C8_7 C 0.1769(2) 0.4253(2) 0.46680(17)
C9_7 C 0.0908(3) 0.3125(3) 0.39898(19)
C10_7 C 0.0694(4) 0.3344(3) 0.3696(3)
H10A_7 H 0.036304 0.333251 0.371155
H10B_7 H 0.078961 0.318127 0.350679
H10C_7 H 0.079211 0.365795 0.368165
C11_7 C 0.0561(3) 0.3136(4) 0.4256(3)
H11A_7 H 0.027515 0.300443 0.418120
H11B_7 H 0.050879 0.344866 0.431974
H11C_7 H 0.067555 0.296405 0.443623
C12_7 C 0.0994(4) 0.2634(3) 0.3893(3)
H12A_7 H 0.070386 0.248735 0.384571
H12B_7 H 0.114716 0.247535 0.406520
H12C_7 H 0.118443 0.262811 0.370458
O1_8 O 0.62741(15) 0.30220(14) 0.37740(10)
O2_8 O 0.66417(16) 0.26458(14) 0.33998(11)
O3_8 O 0.55610(16) 0.21725(14) 0.46357(11)
O4_8 O 0.55945(16) 0.14226(14) 0.46358(11)
C1_8 C 0.6435(2) 0.2660(2) 0.36624(16)
C2_8 C 0.6096(3) 0.2222(2) 0.41059(18)
H2_8 H 0.594479 0.248715 0.417270
C3_8 C 0.6384(3) 0.2233(2) 0.38452(18)
C4_8 C 0.6619(3) 0.1855(3) 0.3757(2)
H4_8 H 0.681336 0.186831 0.357992
C5_8 C 0.6576(3) 0.1449(3) 0.3925(2)
C6_8 C 0.6281(3) 0.1449(3) 0.4172(2)
H6_8 H 0.624166 0.117787 0.428737
C7_8 C 0.6036(3) 0.1826(2) 0.42626(19)
C8_8 C 0.5713(3) 0.1805(2) 0.45265(17)
C9_8 C 0.6834(3) 0.1031(3) 0.3808(2)
C10_8 C 0.6653(3) 0.0893(4) 0.3481(2)
H10A_8 H 0.684729 0.065837 0.339307
H10B_8 H 0.665292 0.115527 0.334111
H10C_8 H 0.634336 0.077839 0.350072
C11_8 C 0.7330(3) 0.1158(4) 0.3760(3)
H11A_8 H 0.750811 0.088533 0.372144
H11B_8 H 0.744594 0.130853 0.394994
H11C_8 H 0.735520 0.136045 0.357924
C12_8 C 0.6786(4) 0.0622(3) 0.4021(3)
H12A_8 H 0.694407 0.036564 0.392674
H12B_8 H 0.646434 0.054819 0.404418
H12C_8 H 0.691834 0.068816 0.422803
O1_9 O 0.56073(14) 0.21716(13) 0.53436(10)
O2_9 O 0.56328(15) 0.14227(13) 0.53424(10)
O3_9 O 0.64764(14) 0.30215(14) 0.61392(10)
O4_9 O 0.69081(14) 0.26519(13) 0.64877(10)
C1_9 C 0.5772(2) 0.18051(19) 0.54464(15)
C2_9 C 0.6231(2) 0.2225(2) 0.58394(16)
H2_9 H 0.608032 0.249411 0.577811
C3_9 C 0.6129(2) 0.1819(2) 0.56914(17)
C4_9 C 0.6357(3) 0.1435(2) 0.57808(19)
H4_9 H 0.628498 0.116110 0.567703
C5_9 C 0.6679(3) 0.1432(3) 0.6011(2)
C6_9 C 0.6780(3) 0.1838(2) 0.61623(18)
H6_9 H 0.700446 0.184646 0.632418
C7_9 C 0.6552(2) 0.2230(2) 0.60753(16)
C8_9 C 0.6649(2) 0.2655(2) 0.62409(15)
C9_9 C 0.6878(3) 0.0979(2) 0.61142(19)
C10_9 C 0.6996(4) 0.0693(3) 0.58254(19)
H10A_9 H 0.712349 0.040541 0.589506
H10B_9 H 0.721932 0.085306 0.569730
H10C_9 H 0.672201 0.063922 0.569946
C11_9 C 0.6559(4) 0.0679(3) 0.6311(2)
H11A_9 H 0.668126 0.037305 0.632011
H11B_9 H 0.625805 0.067366 0.621226
H11C_9 H 0.653685 0.080070 0.652491
C12_9 C 0.7307(3) 0.1048(3) 0.6310(3)
H12A_9 H 0.744174 0.075544 0.636026
H12B_9 H 0.723155 0.120477 0.650611
H12C_9 H 0.752321 0.122843 0.619020
O1_10 O 0.39841(13) 0.64998(15) 0.33480(10)
O2_10 O 0.35613(14) 0.68597(15) 0.29926(10)
O3_10 O 0.56301(14) 0.65394(15) 0.32836(10)
O4_10 O 0.59651(14) 0.69235(16) 0.28969(10)
C1_10 C 0.3945(2) 0.6718(2) 0.30957(16)
C2_10 C 0.4776(2) 0.6732(3) 0.30414(17)
H2_10 H 0.479723 0.660011 0.324510
C3_10 C 0.4357(2) 0.6816(3) 0.29073(17)
C4_10 C 0.4324(2) 0.7005(3) 0.26085(17)
H4_10 H 0.403328 0.706576 0.252029
C5_10 C 0.4708(3) 0.7107(3) 0.24376(19)
C6_10 C 0.5133(2) 0.7032(3) 0.25791(18)
H6_10 H 0.540025 0.711414 0.247029
C7_10 C 0.5166(2) 0.6840(3) 0.28767(17)
C8_10 C 0.5612(2) 0.6765(2) 0.30250(16)
C9_10 C 0.4667(2) 0.7294(3) 0.21103(19)
C10_10 C 0.4355(3) 0.6997(3) 0.1911(2)
H10A_10 H 0.429456 0.714357 0.170796
H10B_10 H 0.406885 0.695119 0.202204
H10C_10 H 0.450089 0.670599 0.187507
C11_10 C 0.4481(4) 0.7774(3) 0.2134(2)
H11A_10 H 0.442666 0.789286 0.192132
H11B_10 H 0.470139 0.796462 0.224423
H11C_10 H 0.419610 0.777038 0.225048
C12_10 C 0.5119(3) 0.7326(4) 0.1938(2)
H12A_10 H 0.506936 0.745585 0.172769
H12B_10 H 0.525029 0.702510 0.191639
H12C_10 H 0.532802 0.751805 0.205786
O1_11 O 0.28270(14) 0.62445(15) 0.38936(10)
O2_11 O 0.23985(13) 0.66112(16) 0.35446(11)
O3_11 O 0.21084(12) 0.54083(15) 0.47546(10)
O4_11 O 0.13566(13) 0.53845(15) 0.47837(10)
C1_11 C 0.2446(2) 0.6382(2) 0.37921(16)
C2_11 C 0.2073(2) 0.5982(2) 0.42347(16)
H2_11 H 0.236144 0.586901 0.429712
C3_11 C 0.2033(2) 0.6266(3) 0.39839(17)
C4_11 C 0.1616(2) 0.6441(3) 0.38939(19)
H4_11 H 0.159536 0.663567 0.371666
C5_11 C 0.1231(3) 0.6334(3) 0.4061(2)
C6_11 C 0.1270(2) 0.6035(3) 0.43133(18)
H6_11 H 0.100649 0.595174 0.442678
C7_11 C 0.1681(2) 0.5860(3) 0.43996(17)
C8_11 C 0.17152(19) 0.5533(2) 0.46630(15)
C9_11 C 0.0753(3) 0.6503(3) 0.39717(18)
C10_11 C 0.0753(4) 0.6780(4) 0.3669(2)
H10A_11 H 0.044401 0.679777 0.358335
H10B_11 H 0.095054 0.663647 0.351392
H10C_11 H 0.086434 0.708366 0.371436
C11_11 C 0.0562(3) 0.6772(4) 0.4249(2)
H11A_11 H 0.027922 0.691921 0.418328
H11B_11 H 0.078205 0.700018 0.431510
H11C_11 H 0.050135 0.656845 0.442522
C12_11 C 0.0437(3) 0.6099(3) 0.3925(3)
H12A_11 H 0.013272 0.617626 0.399879
H12B_11 H 0.055292 0.584236 0.404540
H12C_11 H 0.042218 0.602106 0.370061
O1_12 O 0.61402(14) 0.70550(14) 0.37625(10)
O2_12 O 0.64831(14) 0.74415(14) 0.33856(11)
O3_12 O 0.53868(15) 0.78521(13) 0.46274(11)
O4_12 O 0.53728(15) 0.86042(14) 0.46279(12)
C1_12 C 0.6279(2) 0.7417(2) 0.36501(17)
C2_12 C 0.5916(2) 0.7837(2) 0.40912(18)
H2_12 H 0.577180 0.756600 0.415240
C3_12 C 0.6206(2) 0.7842(2) 0.38366(18)
C4_12 C 0.6436(3) 0.8230(3) 0.3761(2)
H4_12 H 0.663208 0.822767 0.358432
C5_12 C 0.6389(3) 0.8623(3) 0.3933(2)
C6_12 C 0.6072(3) 0.8621(3) 0.4179(2)
H6_12 H 0.601543 0.888788 0.429496
C7_12 C 0.5840(3) 0.8226(2) 0.42539(19)
C8_12 C 0.5515(2) 0.8234(2) 0.45198(18)
C9_12 C 0.6665(3) 0.9049(3) 0.38365(19)
C10_12 C 0.7160(3) 0.8904(3) 0.3781(2)
H10A_12 H 0.733811 0.916464 0.371468
H10B_12 H 0.716811 0.867337 0.361562
H10C_12 H 0.728804 0.878084 0.397645
C11_12 C 0.6489(3) 0.9183(4) 0.3507(2)
H11A_12 H 0.670793 0.938267 0.340594
H11B_12 H 0.619787 0.933868 0.352687
H11C_12 H 0.644770 0.891234 0.337766
C12_12 C 0.6688(4) 0.9370(3) 0.4118(2)
H12A_12 H 0.679825 0.966418 0.404769
H12B_12 H 0.689448 0.924873 0.427838
H12C_12 H 0.638487 0.940442 0.420767
Mo1 Mo 0.65128(2) 0.64779(2) 0.63906(2)
Mo2 Mo 0.68953(2) 0.68497(2) 0.67227(2)
Mo3 Mo 0.36372(2) 0.63931(2) 0.64954(2)
Mo4 Mo 0.32952(2) 0.67452(2) 0.68539(2)
Mo5 Mo 0.49144(2) 0.78644(2) 0.49968(2)
Mo6 Mo 0.48895(2) 0.85744(2) 0.49960(2)
Mo7 Mo 0.66092(2) 0.36149(2) 0.63916(2)
Mo8 Mo 0.70130(2) 0.32686(2) 0.67245(2)
Mo9 Mo 0.37332(2) 0.35327(2) 0.65016(2)
Mo10 Mo 0.34109(2) 0.31630(2) 0.68602(2)
Mo11 Mo 0.21323(2) 0.49143(2) 0.51099(2)
Mo12 Mo 0.14193(2) 0.48848(2) 0.51358(2)
O1_1 O 0.59174(14) 0.65513(15) 0.66517(10)
O2_1 O 0.63174(14) 0.69399(15) 0.70065(10)
O3_1 O 0.42716(13) 0.65031(14) 0.67109(10)
O4_1 O 0.39102(14) 0.68767(14) 0.70911(10)
C1_1 C 0.5947(2) 0.6776(2) 0.69062(16)
C2_1 C 0.5109(2) 0.6743(2) 0.69535(16)
H2_1 H 0.509635 0.660088 0.675299
C3_1 C 0.5522(2) 0.6862(2) 0.70875(16)
C4_1 C 0.5546(2) 0.7061(3) 0.73843(17)
H4_1 H 0.583191 0.714110 0.747248
C5_1 C 0.5151(3) 0.7143(3) 0.75512(19)
C6_1 C 0.4743(2) 0.7040(3) 0.74108(17)
H6_1 H 0.447088 0.711097 0.751790
C7_1 C 0.4716(2) 0.6834(2) 0.71159(16)
C8_1 C 0.4276(2) 0.6733(2) 0.69701(15)
C9_1 C 0.5172(3) 0.7339(3) 0.78831(18)
C10_1 C 0.4730(2) 0.7325(4) 0.8066(2)
H10A_1 H 0.479285 0.737646 0.829009
H10B_1 H 0.452580 0.755966 0.798642
H10C_1 H 0.458725 0.703023 0.803811
C11_1 C 0.5322(4) 0.7828(3) 0.7845(3)
H11A_1 H 0.542105 0.794641 0.804939
H11B_1 H 0.557270 0.784281 0.769540
H11C_1 H 0.506708 0.800694 0.776480
C12_1 C 0.5526(3) 0.7094(4) 0.8085(2)
H12A_1 H 0.557451 0.725944 0.828259
H12B_1 H 0.541802 0.679012 0.813294
H12C_1 H 0.581168 0.707541 0.797021
O1_2 O 0.63375(15) 0.70682(15) 0.61417(10)
O2_2 O 0.67452(15) 0.74586(15) 0.64896(11)
O3_2 O 0.54379(15) 0.78587(14) 0.53361(11)
O4_2 O 0.54155(16) 0.86061(14) 0.53371(12)
C1_2 C 0.6490(2) 0.7439(2) 0.62480(16)
C2_2 C 0.6051(3) 0.7847(2) 0.58410(18)
H2_2 H 0.591813 0.756914 0.577911
C3_2 C 0.6363(3) 0.7855(2) 0.60769(19)
C4_2 C 0.6567(3) 0.8259(3) 0.6164(2)
H4_2 H 0.678838 0.826112 0.632782
C5_2 C 0.6449(4) 0.8661(3) 0.6014(2)
C6_2 C 0.6121(3) 0.8648(3) 0.5782(2)
H6_2 H 0.602780 0.891990 0.568396
C7_2 C 0.5923(3) 0.8242(2) 0.56886(19)
C8_2 C 0.5571(2) 0.8236(2) 0.54429(18)
C9_2 C 0.6682(3) 0.9125(3) 0.6087(2)
C10_2 C 0.6806(4) 0.9384(4) 0.57866(19)
H10A_2 H 0.708033 0.956127 0.582504
H10B_2 H 0.685896 0.917113 0.561464
H10C_2 H 0.655585 0.958560 0.572834
C11_2 C 0.6352(4) 0.9430(4) 0.6265(3)
H11A_2 H 0.633932 0.972474 0.616238
H11B_2 H 0.604927 0.929384 0.626195
H11C_2 H 0.645531 0.946509 0.648347
C12_2 C 0.7129(4) 0.9055(4) 0.6265(3)
H12A_2 H 0.730243 0.933628 0.626558
H12B_2 H 0.706683 0.896537 0.648281
H12C_2 H 0.730529 0.881936 0.616121
O1_3 O 0.6667(2) 0.58702(15) 0.66196(12)
O2_3 O 0.7057(2) 0.62581(16) 0.69741(12)
O3_3 O 0.67196(19) 0.42332(15) 0.66248(11)
O4_3 O 0.71344(19) 0.38661(15) 0.69769(12)
C1_3 C 0.6917(3) 0.5885(2) 0.68663(19)
C2_3 C 0.6948(2) 0.5056(3) 0.6878(2)
H2_3 H 0.683028 0.505061 0.666876
C3_3 C 0.7022(3) 0.5459(3) 0.7028(2)
C4_3 C 0.7184(3) 0.5467(3) 0.7330(2)
H4_3 H 0.722733 0.574952 0.743061
C5_3 C 0.7295(4) 0.5057(4) 0.7502(2)
C6_3 C 0.7213(3) 0.4656(3) 0.7339(2)
H6_3 H 0.727194 0.437778 0.744022
C7_3 C 0.7047(3) 0.4656(3) 0.7032(2)
C8_3 C 0.6959(3) 0.4230(2) 0.68650(18)
C9_3 C 0.7453(3) 0.5122(3) 0.7853(2)
C10_3 C 0.7883(3) 0.5411(4) 0.7842(3)
H10A_3 H 0.803560 0.540287 0.804772
H10B_3 H 0.808697 0.529203 0.768055
H10C_3 H 0.780210 0.572163 0.778957
C11_3 C 0.7099(3) 0.5416(3) 0.8025(3)
H11A_3 H 0.720877 0.548435 0.823842
H11B_3 H 0.705322 0.569700 0.790831
H11C_3 H 0.681135 0.525300 0.803742
C12_3 C 0.7410(5) 0.4656(3) 0.8003(3)
H12A_3 H 0.742845 0.468458 0.823330
H12B_3 H 0.711846 0.452287 0.794355
H12C_3 H 0.765661 0.446348 0.792953
O1_4 O 0.35606(15) 0.57827(14) 0.67352(10)
O2_4 O 0.32082(15) 0.61546(14) 0.71184(10)
O3_4 O 0.36111(16) 0.41423(14) 0.67394(11)
O4_4 O 0.32764(16) 0.37533(14) 0.71211(11)
C1_4 C 0.3351(2) 0.5790(2) 0.69994(16)
C2_4 C 0.3380(3) 0.4960(2) 0.70164(18)
H2_4 H 0.350485 0.496403 0.681060
C3_4 C 0.3278(3) 0.5354(2) 0.71662(17)
C4_4 C 0.3111(3) 0.5355(3) 0.74664(19)
H4_4 H 0.305254 0.563201 0.756954
C5_4 C 0.3029(4) 0.4955(3) 0.7620(2)
C6_4 C 0.3136(3) 0.4554(3) 0.7467(2)
H6_4 H 0.309303 0.427665 0.757381
C7_4 C 0.3300(3) 0.4555(2) 0.71682(18)
C8_4 C 0.3401(2) 0.4124(2) 0.69997(17)
C9_4 C 0.2807(3) 0.4957(2) 0.7954(2)
C10_4 C 0.2965(3) 0.4540(3) 0.8137(2)
H10A_4 H 0.281105 0.452937 0.834128
H10B_4 H 0.289041 0.426889 0.801628
H10C_4 H 0.329281 0.455520 0.817211
C11_4 C 0.2909(4) 0.5384(3) 0.8143(2)
H11A_4 H 0.270679 0.539914 0.832504
H11B_4 H 0.322429 0.537780 0.821682
H11C_4 H 0.286056 0.564815 0.800907
C12_4 C 0.2286(3) 0.4926(3) 0.7939(3)
H12A_4 H 0.216070 0.502140 0.814173
H12B_4 H 0.217126 0.512210 0.777124
H12C_4 H 0.219635 0.461497 0.789601
O1_5 O 0.30268(14) 0.62572(17) 0.62569(10)
O2_5 O 0.26642(15) 0.66301(17) 0.66337(11)
O3_5 O 0.21625(13) 0.54112(19) 0.54651(11)
O4_5 O 0.14094(14) 0.53862(19) 0.54894(11)
C1_5 C 0.2657(2) 0.6399(3) 0.63768(17)
C2_5 C 0.2211(2) 0.5991(3) 0.59734(18)
H2_5 H 0.248356 0.586137 0.589872
C3_5 C 0.2224(2) 0.6294(3) 0.62183(19)
C4_5 C 0.1834(3) 0.6509(4) 0.6315(2)
H4_5 H 0.185512 0.672575 0.647902
C5_5 C 0.1411(3) 0.6420(4) 0.6181(2)
C6_5 C 0.1409(3) 0.6091(4) 0.5937(2)
H6_5 H 0.112925 0.601456 0.583857
C7_5 C 0.1804(2) 0.5876(3) 0.58364(19)
C8_5 C 0.1786(2) 0.5542(3) 0.55840(17)
C9_5 C 0.1017(3) 0.6777(3) 0.62494(19)
C10_5 C 0.0870(4) 0.6575(4) 0.6566(3)
H10A_5 H 0.071851 0.680623 0.669100
H10B_5 H 0.066063 0.632501 0.652691
H10C_5 H 0.113703 0.646489 0.668050
C11_5 C 0.0679(3) 0.6813(4) 0.5974(2)
H11A_5 H 0.067519 0.712250 0.589431
H11B_5 H 0.076957 0.660862 0.580469
H11C_5 H 0.037539 0.673179 0.604656
C12_5 C 0.1144(4) 0.7270(3) 0.6327(3)
H12A_5 H 0.091950 0.747249 0.623188
H12B_5 H 0.114817 0.731212 0.655625
H12C_5 H 0.144401 0.733725 0.624230
O1_6 O 0.31236(14) 0.36228(16) 0.62554(11)
O2_6 O 0.27769(14) 0.32364(16) 0.66336(11)
O3_6 O 0.22064(14) 0.44131(18) 0.54544(11)
O4_6 O 0.14526(14) 0.43792(18) 0.54834(11)
C1_6 C 0.2767(2) 0.3451(3) 0.63749(17)
C2_6 C 0.2302(2) 0.3824(3) 0.59651(18)
H2_6 H 0.256346 0.398240 0.589858
C3_6 C 0.2330(2) 0.3516(3) 0.62078(19)
C4_6 C 0.1958(2) 0.3255(3) 0.6288(2)
H4_6 H 0.198673 0.303637 0.645053
C5_6 C 0.1541(3) 0.3309(3) 0.6133(2)
C6_6 C 0.1518(3) 0.3647(3) 0.5907(2)
H6_6 H 0.123466 0.370638 0.580833
C7_6 C 0.1887(2) 0.3899(3) 0.58198(19)
C8_6 C 0.1845(2) 0.4254(3) 0.55685(18)
C9_6 C 0.1117(2) 0.3087(3) 0.62619(18)
C10_6 C 0.0943(4) 0.3332(3) 0.6560(2)
H10A_6 H 0.080744 0.311239 0.670307
H10B_6 H 0.119647 0.348275 0.666598
H10C_6 H 0.071463 0.355495 0.649801
C11_6 C 0.0718(3) 0.3091(4) 0.6031(2)
H11A_6 H 0.045275 0.295713 0.613092
H11B_6 H 0.064978 0.340149 0.596955
H11C_6 H 0.079656 0.291678 0.584259
C12_6 C 0.1222(3) 0.2607(3) 0.6372(3)
H12A_6 H 0.093912 0.245421 0.642694
H12B_6 H 0.137221 0.244196 0.620271
H12C_6 H 0.142155 0.261764 0.655795
O1_7 O 0.70785(14) 0.63819(16) 0.61009(11)
O2_7 O 0.74880(15) 0.67857(17) 0.64469(12)
O3_7 O 0.78526(13) 0.55797(15) 0.52434(11)
O4_7 O 0.86082(13) 0.56157(15) 0.52150(11)
C1_7 C 0.7450(2) 0.6557(3) 0.61968(18)
C2_7 C 0.7846(2) 0.6169(3) 0.57554(18)
H2_7 H 0.757210 0.602002 0.570036
C3_7 C 0.7860(2) 0.6477(3) 0.59998(19)
C4_7 C 0.8258(3) 0.6701(3) 0.6075(2)
H4_7 H 0.826357 0.690172 0.624906
C5_7 C 0.8654(3) 0.6636(3) 0.5898(2)
C6_7 C 0.8632(3) 0.6315(3) 0.5658(2)
H6_7 H 0.889461 0.625429 0.553680
C7_7 C 0.8238(2) 0.6084(3) 0.55945(19)
C8_7 C 0.8231(2) 0.5747(2) 0.53320(17)
C9_7 C 0.9092(3) 0.6875(3) 0.60102(19)
C10_7 C 0.9306(4) 0.6656(3) 0.6304(3)
H10A_7 H 0.963696 0.666749 0.628845
H10B_7 H 0.921039 0.681873 0.649321
H10C_7 H 0.920789 0.634205 0.631835
C11_7 C 0.9439(3) 0.6864(4) 0.5744(3)
H11A_7 H 0.972485 0.699557 0.581880
H11B_7 H 0.949121 0.655134 0.568026
H11C_7 H 0.932445 0.703595 0.556377
C12_7 C 0.9006(4) 0.7366(3) 0.6107(3)
H12A_7 H 0.929614 0.751265 0.615429
H12B_7 H 0.885284 0.752465 0.593480
H12C_7 H 0.881557 0.737189 0.629542
O1_8 O 0.37259(15) 0.69780(14) 0.62260(10)
O2_8 O 0.33583(16) 0.73542(14) 0.66002(11)
O3_8 O 0.44390(16) 0.78275(14) 0.53643(11)
O4_8 O 0.44055(16) 0.85774(14) 0.53642(11)
C1_8 C 0.3565(2) 0.7340(2) 0.63376(16)
C2_8 C 0.3904(3) 0.7778(2) 0.58941(18)
H2_8 H 0.405521 0.751285 0.582730
C3_8 C 0.3616(3) 0.7767(2) 0.61548(18)
C4_8 C 0.3381(3) 0.8145(3) 0.6243(2)
H4_8 H 0.318664 0.813169 0.642008
C5_8 C 0.3424(3) 0.8551(3) 0.6075(2)
C6_8 C 0.3719(3) 0.8551(3) 0.5828(2)
H6_8 H 0.375834 0.882213 0.571263
C7_8 C 0.3964(3) 0.8174(2) 0.57374(19)
C8_8 C 0.4287(3) 0.8195(2) 0.54735(17)
C9_8 C 0.3166(3) 0.8969(3) 0.6192(2)
C10_8 C 0.3347(3) 0.9107(4) 0.6519(2)
H10A_8 H 0.315271 0.934163 0.660693
H10B_8 H 0.334708 0.884473 0.665889
H10C_8 H 0.365664 0.922161 0.649928
C11_8 C 0.2670(3) 0.8842(4) 0.6240(3)
H11A_8 H 0.249189 0.911467 0.627856
H11B_8 H 0.255406 0.869147 0.605006
H11C_8 H 0.264480 0.863955 0.642076
C12_8 C 0.3214(4) 0.9378(3) 0.5979(3)
H12A_8 H 0.305593 0.963436 0.607326
H12B_8 H 0.353566 0.945181 0.595582
H12C_8 H 0.308166 0.931184 0.577197
O1_9 O 0.43927(14) 0.78284(13) 0.46564(10)
O2_9 O 0.43672(15) 0.85773(13) 0.46576(10)
O3_9 O 0.35236(14) 0.69785(14) 0.38608(10)
O4_9 O 0.30919(14) 0.73481(13) 0.35123(10)
C1_9 C 0.4228(2) 0.81949(19) 0.45536(15)
C2_9 C 0.3769(2) 0.7775(2) 0.41606(16)
H2_9 H 0.391968 0.750589 0.422189
C3_9 C 0.3871(2) 0.8181(2) 0.43086(17)
C4_9 C 0.3643(3) 0.8565(2) 0.42192(19)
H4_9 H 0.371502 0.883890 0.432297
C5_9 C 0.3321(3) 0.8568(3) 0.3989(2)
C6_9 C 0.3220(3) 0.8162(2) 0.38377(18)
H6_9 H 0.299554 0.815354 0.367582
C7_9 C 0.3448(2) 0.7770(2) 0.39247(16)
C8_9 C 0.3351(2) 0.7345(2) 0.37591(15)
C9_9 C 0.3122(3) 0.9021(2) 0.38858(19)
C10_9 C 0.3004(4) 0.9307(3) 0.41746(19)
H10A_9 H 0.287651 0.959459 0.410494
H10B_9 H 0.278068 0.914694 0.430270
H10C_9 H 0.327799 0.936078 0.430054
C11_9 C 0.3441(4) 0.9321(3) 0.3689(2)
H11A_9 H 0.331874 0.962695 0.367989
H11B_9 H 0.374195 0.932634 0.378774
H11C_9 H 0.346315 0.919930 0.347509
C12_9 C 0.2693(3) 0.8952(3) 0.3690(3)
H12A_9 H 0.255826 0.924456 0.363974
H12B_9 H 0.276845 0.879523 0.349389
H12C_9 H 0.247679 0.877157 0.380980
O1_10 O 0.60159(13) 0.35002(15) 0.66520(10)
O2_10 O 0.64387(14) 0.31403(15) 0.70074(10)
O3_10 O 0.43699(14) 0.34606(15) 0.67164(10)
O4_10 O 0.40349(14) 0.30765(16) 0.71031(10)
C1_10 C 0.6055(2) 0.3282(2) 0.69043(16)
C2_10 C 0.5224(2) 0.3268(3) 0.69586(17)
H2_10 H 0.520277 0.339989 0.675490
C3_10 C 0.5643(2) 0.3184(3) 0.70927(17)
C4_10 C 0.5676(2) 0.2995(3) 0.73915(17)
H4_10 H 0.596672 0.293424 0.747971
C5_10 C 0.5292(3) 0.2893(3) 0.75624(19)
C6_10 C 0.4867(2) 0.2968(3) 0.74209(18)
H6_10 H 0.459975 0.288586 0.752971
C7_10 C 0.4834(2) 0.3160(3) 0.71233(17)
C8_10 C 0.4388(2) 0.3235(2) 0.69750(16)
C9_10 C 0.5333(2) 0.2706(3) 0.78897(19)
C10_10 C 0.5645(3) 0.3003(3) 0.8089(2)
H10A_10 H 0.570544 0.285643 0.829204
H10B_10 H 0.593115 0.304881 0.797796
H10C_10 H 0.549911 0.329401 0.812493
C11_10 C 0.5519(4) 0.2226(3) 0.7866(2)
H11A_10 H 0.557334 0.210714 0.807868
H11B_10 H 0.529861 0.203538 0.775577
H11C_10 H 0.580390 0.222962 0.774952
C12_10 C 0.4881(3) 0.2674(4) 0.8062(2)
H12A_10 H 0.493064 0.254415 0.827231
H12B_10 H 0.474971 0.297490 0.808361
H12C_10 H 0.467198 0.248195 0.794214
O1_11 O 0.71730(14) 0.37555(15) 0.61064(10)
O2_11 O 0.76015(13) 0.33888(16) 0.64554(11)
O3_11 O 0.78916(12) 0.45917(15) 0.52454(10)
O4_11 O 0.86434(13) 0.46155(15) 0.52163(10)
C1_11 C 0.7554(2) 0.3618(2) 0.62079(16)
C2_11 C 0.7927(2) 0.4018(2) 0.57653(16)
H2_11 H 0.763856 0.413099 0.570288
C3_11 C 0.7967(2) 0.3734(3) 0.60161(17)
C4_11 C 0.8384(2) 0.3559(3) 0.61061(19)
H4_11 H 0.840464 0.336433 0.628334
C5_11 C 0.8769(3) 0.3666(3) 0.5939(2)
C6_11 C 0.8730(2) 0.3965(3) 0.56867(18)
H6_11 H 0.899351 0.404826 0.557322
C7_11 C 0.8319(2) 0.4140(3) 0.56004(17)
C8_11 C 0.82848(19) 0.4467(2) 0.53370(15)
C9_11 C 0.9247(3) 0.3497(3) 0.60283(18)
C10_11 C 0.9247(4) 0.3220(4) 0.6331(2)
H10A_11 H 0.955599 0.320223 0.641665
H10B_11 H 0.904946 0.336353 0.648608
H10C_11 H 0.913566 0.291634 0.628564
C11_11 C 0.9438(3) 0.3228(4) 0.5751(2)
H11A_11 H 0.972078 0.308079 0.581672
H11B_11 H 0.921795 0.299982 0.568490
H11C_11 H 0.949865 0.343155 0.557478
C12_11 C 0.9563(3) 0.3901(3) 0.6075(3)
H12A_11 H 0.986728 0.382374 0.600121
H12B_11 H 0.944708 0.415764 0.595460
H12C_11 H 0.957782 0.397894 0.629939
O1_12 O 0.38598(14) 0.29450(14) 0.62375(10)
O2_12 O 0.35169(14) 0.25585(14) 0.66144(11)
O3_12 O 0.46132(15) 0.21479(13) 0.53726(11)
O4_12 O 0.46272(15) 0.13958(14) 0.53721(12)
C1_12 C 0.3721(2) 0.2583(2) 0.63499(17)
C2_12 C 0.4084(2) 0.2163(2) 0.59088(18)
H2_12 H 0.422820 0.243400 0.584760
C3_12 C 0.3794(2) 0.2158(2) 0.61634(18)
C4_12 C 0.3564(3) 0.1770(3) 0.6239(2)
H4_12 H 0.336792 0.177233 0.641568
C5_12 C 0.3611(3) 0.1377(3) 0.6067(2)
C6_12 C 0.3928(3) 0.1379(3) 0.5821(2)
H6_12 H 0.398457 0.111212 0.570504
C7_12 C 0.4160(3) 0.1774(2) 0.57461(19)
C8_12 C 0.4485(2) 0.1766(2) 0.54802(18)
C9_12 C 0.3335(3) 0.0951(3) 0.61635(19)
C10_12 C 0.2840(3) 0.1096(3) 0.6219(2)
H10A_12 H 0.266189 0.083536 0.628532
H10B_12 H 0.283189 0.132663 0.638438
H10C_12 H 0.271196 0.121916 0.602355
C11_12 C 0.3511(3) 0.0817(4) 0.6493(2)
H11A_12 H 0.329207 0.061733 0.659406
H11B_12 H 0.380213 0.066132 0.647313
H11C_12 H 0.355230 0.108766 0.662234
C12_12 C 0.3312(4) 0.0630(3) 0.5882(2)
H12A_12 H 0.320175 0.033582 0.595231
H12B_12 H 0.310552 0.075127 0.572162
H12C_12 H 0.361513 0.059558 0.579233

#END
