data_Co24_P1_PM
_symmetry_space_group_name_H-M   'P 1'
_cell_length_a 39.887000
_cell_length_b 39.887000
_cell_length_c 39.887000
_cell_angle_alpha 90.000000
_cell_angle_beta 90.000000
_cell_angle_gamma 90.000000
_symmetry_Int_Tables_number 1

loop_
_symmetry_equiv_pos_as_xyz
 'x, y, z'

loop_
_atom_site_label
_atom_site_fract_x
_atom_site_fract_y
_atom_site_fract_z
_atom_site_charge
Co 0.000000 0.140550 0.640550 1.122237
Co 0.000000 0.859450 0.359450 1.122237
Co 0.640550 0.140550 0.000000 1.122182
Co 0.359450 0.859450 0.000000 1.122182
Co 0.640550 0.000000 0.140550 1.122183
Co 0.359450 0.000000 0.859450 1.122183
Co 0.859450 0.000000 0.359450 1.122237
Co 0.859450 0.859450 0.500000 1.122239
Co 0.000000 0.359450 0.859450 1.122238
Co 0.859450 0.500000 0.859450 1.122234
Co 0.859450 0.359450 0.000000 1.122236
Co 0.500000 0.359450 0.359450 1.122233
Co 0.359450 0.500000 0.359450 1.122239
Co 0.359450 0.359450 0.500000 1.122237
Co 0.500000 0.140550 0.859450 1.122202
Co 0.859450 0.140550 0.500000 1.122240
Co 0.140550 0.500000 0.859450 1.122241
Co 0.640550 0.500000 0.359450 1.122238
Co 0.500000 0.359450 0.640550 1.122238
Co 0.359450 0.640550 0.500000 1.122241
Co 0.640550 0.000000 0.859450 1.122182
Co 0.359450 0.140550 0.000000 1.122179
Co 0.000000 0.140550 0.359450 1.122237
Co 0.859450 0.000000 0.640550 1.122239
Co 0.140550 0.359450 0.000000 1.122239
Co 0.000000 0.359450 0.140550 1.122239
Co 0.500000 0.140150 0.140150 1.121749
Co 0.500000 0.190150 0.190150 1.151575
Co 0.690150 0.000000 0.190150 1.150389
Co 0.690150 0.190150 0.000000 1.150389
Co 0.000000 0.809850 0.309850 1.150387
Co 0.809850 0.000000 0.309850 1.150387
Co 0.809850 0.809850 0.500000 1.150387
Co 0.000000 0.309850 0.809850 1.150387
Co 0.809850 0.500000 0.809850 1.150382
Co 0.809850 0.309850 0.000000 1.150387
Co 0.500000 0.309850 0.309850 1.150383
Co 0.309850 0.500000 0.309850 1.150391
Co 0.309850 0.309850 0.500000 1.150387
Co 0.500000 0.190150 0.809850 1.150234
Co 0.809850 0.190150 0.500000 1.150233
Co 0.190150 0.500000 0.809850 1.150234
Co 0.690150 0.500000 0.309850 1.150310
Co 0.500000 0.309850 0.690150 1.150308
Co 0.309850 0.690150 0.500000 1.150311
Co 0.690150 0.000000 0.809850 1.150312
Co 0.309850 0.190150 0.000000 1.150308
Co 0.000000 0.190150 0.309850 1.150309
Co 0.809850 0.000000 0.690150 1.150310
Co 0.190150 0.309850 0.000000 1.150312
Co 0.000000 0.309850 0.190150 1.150310
C 0.589960 0.200880 0.089960 -0.055214
C 0.589960 0.089960 0.200880 -0.055308
C 0.700880 0.089960 0.089960 -0.055767
C 0.910040 0.799120 0.410040 -0.055720
C 0.910040 0.910040 0.299120 -0.055881
C 0.799120 0.910040 0.410040 -0.055565
C 0.910040 0.299120 0.910040 -0.055702
C 0.910040 0.410040 0.799120 -0.055560
C 0.799120 0.410040 0.910040 -0.055901
C 0.410040 0.299120 0.410040 -0.055903
C 0.410040 0.410040 0.299120 -0.055912
C 0.299120 0.410040 0.410040 -0.055910
C 0.589960 0.200880 0.910040 -0.055836
C 0.589960 0.089960 0.799120 -0.055788
C 0.410040 0.200880 0.089960 -0.055292
C 0.410040 0.089960 0.200880 -0.055488
C 0.589960 0.910040 0.200880 -0.055600
C 0.700880 0.910040 0.089960 -0.055645
C 0.700880 0.089960 0.910040 -0.055694
C 0.910040 0.200880 0.410040 -0.055699
C 0.799120 0.089960 0.410040 -0.055640
C 0.799120 0.910040 0.589960 -0.055694
C 0.910040 0.799120 0.589960 -0.055840
C 0.089960 0.799120 0.410040 -0.055814
C 0.089960 0.910040 0.299120 -0.055701
C 0.910040 0.089960 0.299120 -0.056095
C 0.089960 0.410040 0.799120 -0.055720
C 0.200880 0.410040 0.910040 -0.055800
C 0.910040 0.299120 0.089960 -0.055827
C 0.089960 0.299120 0.910040 -0.055901
C 0.910040 0.589960 0.799120 -0.055627
C 0.799120 0.589960 0.910040 -0.055895
C 0.799120 0.410040 0.089960 -0.055683
C 0.589960 0.410040 0.299120 -0.055629
C 0.700880 0.410040 0.410040 -0.055623
C 0.410040 0.299120 0.589960 -0.055658
C 0.410040 0.410040 0.700880 -0.056082
C 0.410040 0.700880 0.410040 -0.055630
C 0.299120 0.589960 0.410040 -0.055848
C 0.589960 0.299120 0.410040 -0.055622
C 0.410040 0.589960 0.299120 -0.055675
C 0.299120 0.410040 0.589960 -0.055695
C 0.410040 0.200880 0.910040 -0.055780
C 0.799120 0.089960 0.589960 -0.055897
C 0.089960 0.589960 0.799120 -0.055638
C 0.700880 0.910040 0.910040 -0.055755
C 0.089960 0.089960 0.299120 -0.055612
C 0.089960 0.299120 0.089960 -0.055894
C 0.574880 0.215490 0.117320 -0.004234
C 0.617320 0.074880 0.215490 -0.003859
C 0.715490 0.117320 0.074880 -0.003593
C 0.715490 0.074880 0.117320 -0.003022
C 0.574880 0.117320 0.215490 -0.003663
C 0.617320 0.215490 0.074880 -0.003507
C 0.925120 0.784510 0.382680 -0.003550
C 0.882680 0.925120 0.284510 -0.003453
C 0.784510 0.882680 0.425120 -0.003736
C 0.784510 0.925120 0.382680 -0.003275
C 0.925120 0.882680 0.284510 -0.002908
C 0.882680 0.784510 0.425120 -0.003100
C 0.925120 0.284510 0.882680 -0.003588
C 0.882680 0.425120 0.784510 -0.003737
C 0.784510 0.382680 0.925120 -0.003334
C 0.784510 0.425120 0.882680 -0.002986
C 0.925120 0.382680 0.784510 -0.003277
C 0.882680 0.284510 0.925120 -0.003134
C 0.425120 0.284510 0.382680 -0.002904
C 0.382680 0.425120 0.284510 -0.003331
C 0.284510 0.382680 0.425120 -0.002874
C 0.284510 0.425120 0.382680 -0.003425
C 0.425120 0.382680 0.284510 -0.003000
C 0.382680 0.284510 0.425120 -0.003452
C 0.574880 0.215490 0.882680 -0.003520
C 0.617320 0.074880 0.784510 -0.003469
C 0.574880 0.117320 0.784510 -0.003137
C 0.617320 0.215490 0.925120 -0.002968
C 0.425120 0.215490 0.117320 -0.004139
C 0.382680 0.215490 0.074880 -0.003471
C 0.382680 0.074880 0.215490 -0.003285
C 0.425120 0.117320 0.215490 -0.003896
C 0.617320 0.925120 0.215490 -0.003710
C 0.574880 0.882680 0.215490 -0.003236
C 0.715490 0.882680 0.074880 -0.003664
C 0.715490 0.925120 0.117320 -0.003202
C 0.715490 0.117320 0.925120 -0.003591
C 0.715490 0.074880 0.882680 -0.003139
C 0.925120 0.215490 0.382680 -0.003600
C 0.784510 0.117320 0.425120 -0.003669
C 0.784510 0.074880 0.382680 -0.003178
C 0.882680 0.215490 0.425120 -0.003156
C 0.784510 0.882680 0.574880 -0.003121
C 0.784510 0.925120 0.617320 -0.003607
C 0.925120 0.784510 0.617320 -0.003048
C 0.882680 0.784510 0.574880 -0.003390
C 0.074880 0.784510 0.382680 -0.003533
C 0.117320 0.784510 0.425120 -0.002970
C 0.117320 0.925120 0.284510 -0.003609
C 0.074880 0.882680 0.284510 -0.003156
C 0.882680 0.074880 0.284510 -0.003188
C 0.925120 0.117320 0.284510 -0.002733
C 0.117320 0.425120 0.784510 -0.003569
C 0.215490 0.382680 0.925120 -0.003555
C 0.215490 0.425120 0.882680 -0.002989
C 0.074880 0.382680 0.784510 -0.003114
C 0.925120 0.284510 0.117320 -0.003418
C 0.882680 0.284510 0.074880 -0.003080
C 0.074880 0.284510 0.882680 -0.003330
C 0.117320 0.284510 0.925120 -0.002977
C 0.882680 0.574880 0.784510 -0.003198
C 0.925120 0.617320 0.784510 -0.003700
C 0.784510 0.617320 0.925120 -0.003434
C 0.784510 0.574880 0.882680 -0.002919
C 0.784510 0.382680 0.074880 -0.003597
C 0.784510 0.425120 0.117320 -0.003160
C 0.617320 0.425120 0.284510 -0.003638
C 0.715490 0.382680 0.425120 -0.003635
C 0.715490 0.425120 0.382680 -0.003221
C 0.574880 0.382680 0.284510 -0.003215
C 0.425120 0.284510 0.617320 -0.003605
C 0.382680 0.425120 0.715490 -0.003210
C 0.425120 0.382680 0.715490 -0.002767
C 0.382680 0.284510 0.574880 -0.003179
C 0.425120 0.715490 0.382680 -0.003668
C 0.284510 0.617320 0.425120 -0.003366
C 0.284510 0.574880 0.382680 -0.003028
C 0.382680 0.715490 0.425120 -0.003191
C 0.574880 0.284510 0.382680 -0.003653
C 0.617320 0.284510 0.425120 -0.003228
C 0.382680 0.574880 0.284510 -0.003606
C 0.425120 0.617320 0.284510 -0.003168
C 0.284510 0.382680 0.574880 -0.003614
C 0.284510 0.425120 0.617320 -0.003153
C 0.425120 0.215490 0.882680 -0.003456
C 0.382680 0.215490 0.925120 -0.003135
C 0.784510 0.117320 0.574880 -0.003431
C 0.784510 0.074880 0.617320 -0.002877
C 0.117320 0.574880 0.784510 -0.003653
C 0.074880 0.617320 0.784510 -0.003155
C 0.715490 0.882680 0.925120 -0.003046
C 0.715490 0.925120 0.882680 -0.003634
C 0.117320 0.074880 0.284510 -0.003229
C 0.074880 0.117320 0.284510 -0.003678
C 0.074880 0.284510 0.117320 -0.002982
C 0.117320 0.284510 0.074880 -0.003346
C 0.587330 0.246500 0.129170 -0.212570
C 0.629170 0.087330 0.246500 -0.212840
C 0.746500 0.129170 0.087330 -0.213114
C 0.746500 0.087330 0.129170 -0.215313
C 0.587330 0.129170 0.246500 -0.214641
C 0.629170 0.246500 0.087330 -0.214640
C 0.912670 0.753500 0.370830 -0.213107
C 0.870830 0.912670 0.253500 -0.213228
C 0.753500 0.870830 0.412670 -0.212880
C 0.753500 0.912670 0.370830 -0.214845
C 0.912670 0.870830 0.253500 -0.215440
C 0.870830 0.753500 0.412670 -0.215020
C 0.912670 0.253500 0.870830 -0.213021
C 0.870830 0.412670 0.753500 -0.212871
C 0.753500 0.370830 0.912670 -0.213507
C 0.753500 0.412670 0.870830 -0.215241
C 0.912670 0.370830 0.753500 -0.214837
C 0.870830 0.253500 0.912670 -0.215047
C 0.412670 0.253500 0.370830 -0.215465
C 0.370830 0.412670 0.253500 -0.213494
C 0.253500 0.370830 0.412670 -0.215466
C 0.253500 0.412670 0.370830 -0.213310
C 0.412670 0.370830 0.253500 -0.215304
C 0.370830 0.253500 0.412670 -0.213309
C 0.587330 0.246500 0.870830 -0.213187
C 0.629170 0.087330 0.753500 -0.213391
C 0.587330 0.129170 0.753500 -0.215130
C 0.629170 0.246500 0.912670 -0.215401
C 0.412670 0.246500 0.129170 -0.212679
C 0.370830 0.246500 0.087330 -0.214779
C 0.370830 0.087330 0.246500 -0.214964
C 0.412670 0.129170 0.246500 -0.213123
C 0.629170 0.912670 0.246500 -0.212930
C 0.587330 0.870830 0.246500 -0.214940
C 0.746500 0.870830 0.087330 -0.212977
C 0.746500 0.912670 0.129170 -0.214944
C 0.746500 0.129170 0.912670 -0.213081
C 0.746500 0.087330 0.870830 -0.215043
C 0.912670 0.246500 0.370830 -0.213093
C 0.753500 0.129170 0.412670 -0.212962
C 0.753500 0.087330 0.370830 -0.214980
C 0.870830 0.246500 0.412670 -0.215002
C 0.753500 0.870830 0.587330 -0.215035
C 0.753500 0.912670 0.629170 -0.213019
C 0.912670 0.753500 0.629170 -0.215174
C 0.870830 0.753500 0.587330 -0.213439
C 0.087330 0.753500 0.370830 -0.213163
C 0.129170 0.753500 0.412670 -0.215358
C 0.129170 0.912670 0.253500 -0.213084
C 0.087330 0.870830 0.253500 -0.214996
C 0.870830 0.087330 0.253500 -0.213725
C 0.912670 0.129170 0.253500 -0.215690
C 0.129170 0.412670 0.753500 -0.213099
C 0.246500 0.370830 0.912670 -0.213139
C 0.246500 0.412670 0.870830 -0.215334
C 0.087330 0.370830 0.753500 -0.215075
C 0.912670 0.253500 0.129170 -0.213415
C 0.870830 0.253500 0.087330 -0.215158
C 0.087330 0.253500 0.870830 -0.213511
C 0.129170 0.253500 0.912670 -0.215236
C 0.870830 0.587330 0.753500 -0.214957
C 0.912670 0.629170 0.753500 -0.212942
C 0.753500 0.629170 0.912670 -0.213280
C 0.753500 0.587330 0.870830 -0.215461
C 0.753500 0.370830 0.087330 -0.213016
C 0.753500 0.412670 0.129170 -0.214984
C 0.629170 0.412670 0.253500 -0.212944
C 0.746500 0.370830 0.412670 -0.212942
C 0.746500 0.412670 0.370830 -0.214926
C 0.587330 0.370830 0.253500 -0.214931
C 0.412670 0.253500 0.629170 -0.213029
C 0.370830 0.412670 0.746500 -0.213705
C 0.412670 0.370830 0.746500 -0.215680
C 0.370830 0.253500 0.587330 -0.214957
C 0.412670 0.746500 0.370830 -0.212948
C 0.253500 0.629170 0.412670 -0.213444
C 0.253500 0.587330 0.370830 -0.215188
C 0.370830 0.746500 0.412670 -0.214959
C 0.587330 0.253500 0.370830 -0.212946
C 0.629170 0.253500 0.412670 -0.214922
C 0.370830 0.587330 0.253500 -0.212998
C 0.412670 0.629170 0.253500 -0.214968
C 0.253500 0.370830 0.587330 -0.213023
C 0.253500 0.412670 0.629170 -0.215039
C 0.412670 0.246500 0.870830 -0.213371
C 0.370830 0.246500 0.912670 -0.215118
C 0.753500 0.129170 0.587330 -0.213306
C 0.753500 0.087330 0.629170 -0.215458
C 0.129170 0.587330 0.753500 -0.212966
C 0.087330 0.629170 0.753500 -0.214974
C 0.746500 0.870830 0.912670 -0.215305
C 0.746500 0.912670 0.870830 -0.213107
C 0.129170 0.087330 0.253500 -0.214898
C 0.087330 0.129170 0.253500 -0.212923
C 0.087330 0.253500 0.129170 -0.215231
C 0.129170 0.253500 0.087330 -0.213497
C 0.614360 0.261510 0.114360 0.285631
C 0.614360 0.114360 0.261510 0.285815
C 0.761510 0.114360 0.114360 0.286164
C 0.885640 0.738490 0.385640 0.286113
C 0.885640 0.885640 0.238490 0.286336
C 0.738490 0.885640 0.385640 0.285807
C 0.885640 0.238490 0.885640 0.286047
C 0.885640 0.385640 0.738490 0.285797
C 0.738490 0.385640 0.885640 0.286396
C 0.385640 0.238490 0.385640 0.286338
C 0.385640 0.385640 0.238490 0.286368
C 0.238490 0.385640 0.385640 0.286379
C 0.614360 0.261510 0.885640 0.286286
C 0.614360 0.114360 0.738490 0.286214
C 0.385640 0.261510 0.114360 0.285720
C 0.385640 0.114360 0.261510 0.286102
C 0.614360 0.885640 0.261510 0.285909
C 0.761510 0.885640 0.114360 0.285981
C 0.761510 0.114360 0.885640 0.286067
C 0.885640 0.261510 0.385640 0.286058
C 0.738490 0.114360 0.385640 0.285951
C 0.738490 0.885640 0.614360 0.286044
C 0.885640 0.738490 0.614360 0.286287
C 0.114360 0.738490 0.385640 0.286220
C 0.114360 0.885640 0.238490 0.286032
C 0.885640 0.114360 0.238490 0.286701
C 0.114360 0.385640 0.738490 0.286085
C 0.261510 0.385640 0.885640 0.286178
C 0.885640 0.238490 0.114360 0.286240
C 0.114360 0.238490 0.885640 0.286410
C 0.885640 0.614360 0.738490 0.285893
C 0.738490 0.614360 0.885640 0.286333
C 0.738490 0.385640 0.114360 0.286052
C 0.614360 0.385640 0.238490 0.285952
C 0.761510 0.385640 0.385640 0.285955
C 0.385640 0.238490 0.614360 0.285994
C 0.385640 0.385640 0.761510 0.286660
C 0.385640 0.761510 0.385640 0.285926
C 0.238490 0.614360 0.385640 0.286322
C 0.614360 0.238490 0.385640 0.285937
C 0.385640 0.614360 0.238490 0.286022
C 0.238490 0.385640 0.614360 0.286028
C 0.385640 0.261510 0.885640 0.286211
C 0.738490 0.114360 0.614360 0.286383
C 0.114360 0.614360 0.738490 0.285979
C 0.761510 0.885640 0.885640 0.286130
C 0.114360 0.114360 0.238490 0.285902
C 0.114360 0.238490 0.114360 0.286395
C 0.627300 0.295300 0.127300 -0.762367
C 0.627300 0.127300 0.295300 -0.762641
C 0.795300 0.127300 0.127300 -0.762923
C 0.872700 0.704700 0.372700 -0.762953
C 0.872700 0.872700 0.204700 -0.763171
C 0.704700 0.872700 0.372700 -0.762511
C 0.872700 0.204700 0.872700 -0.762838
C 0.872700 0.372700 0.704700 -0.762486
C 0.704700 0.372700 0.872700 -0.763326
C 0.372700 0.204700 0.372700 -0.763195
C 0.372700 0.372700 0.204700 -0.763267
C 0.204700 0.372700 0.372700 -0.763236
C 0.627300 0.295300 0.872700 -0.763114
C 0.627300 0.127300 0.704700 -0.763087
C 0.372700 0.295300 0.127300 -0.762473
C 0.372700 0.127300 0.295300 -0.763011
C 0.627300 0.872700 0.295300 -0.762655
C 0.795300 0.872700 0.127300 -0.762768
C 0.795300 0.127300 0.872700 -0.762881
C 0.872700 0.295300 0.372700 -0.762898
C 0.704700 0.127300 0.372700 -0.762709
C 0.704700 0.872700 0.627300 -0.762834
C 0.872700 0.704700 0.627300 -0.763167
C 0.127300 0.704700 0.372700 -0.763007
C 0.127300 0.872700 0.204700 -0.762850
C 0.872700 0.127300 0.204700 -0.763663
C 0.127300 0.372700 0.704700 -0.762908
C 0.295300 0.372700 0.872700 -0.762932
C 0.872700 0.204700 0.127300 -0.763097
C 0.127300 0.204700 0.872700 -0.763345
C 0.872700 0.627300 0.704700 -0.762617
C 0.704700 0.627300 0.872700 -0.763167
C 0.704700 0.372700 0.127300 -0.762873
C 0.627300 0.372700 0.204700 -0.762718
C 0.795300 0.372700 0.372700 -0.762723
C 0.372700 0.204700 0.627300 -0.762782
C 0.372700 0.372700 0.795300 -0.763609
C 0.372700 0.795300 0.372700 -0.762655
C 0.204700 0.627300 0.372700 -0.763215
C 0.627300 0.204700 0.372700 -0.762706
C 0.372700 0.627300 0.204700 -0.762812
C 0.204700 0.372700 0.627300 -0.762826
C 0.372700 0.295300 0.872700 -0.763060
C 0.704700 0.127300 0.627300 -0.763247
C 0.127300 0.627300 0.704700 -0.762742
C 0.795300 0.872700 0.872700 -0.762898
C 0.127300 0.127300 0.204700 -0.762635
C 0.127300 0.204700 0.127300 -0.763322
C 0.546410 0.197990 0.134770 0.355901
C 0.634770 0.046410 0.197990 0.355239
C 0.697990 0.134770 0.046410 0.355175
C 0.697990 0.046410 0.134770 0.354733
C 0.546410 0.134770 0.197990 0.355557
C 0.634770 0.197990 0.046410 0.354986
C 0.953590 0.802010 0.365230 0.355125
C 0.865230 0.953590 0.302010 0.355091
C 0.802010 0.865230 0.453590 0.355206
C 0.802010 0.953590 0.365230 0.354928
C 0.953590 0.865230 0.302010 0.354688
C 0.865230 0.802010 0.453590 0.354855
C 0.953590 0.302010 0.865230 0.355140
C 0.865230 0.453590 0.802010 0.355210
C 0.802010 0.365230 0.953590 0.354971
C 0.802010 0.453590 0.865230 0.354794
C 0.953590 0.365230 0.802010 0.354930
C 0.865230 0.302010 0.953590 0.354841
C 0.453590 0.302010 0.365230 0.354684
C 0.365230 0.453590 0.302010 0.354977
C 0.302010 0.365230 0.453590 0.354689
C 0.302010 0.453590 0.365230 0.355069
C 0.453590 0.365230 0.302010 0.354771
C 0.365230 0.302010 0.453590 0.355065
C 0.546410 0.197990 0.865230 0.355134
C 0.634770 0.046410 0.802010 0.355012
C 0.546410 0.134770 0.802010 0.354895
C 0.634770 0.197990 0.953590 0.354711
C 0.453590 0.197990 0.134770 0.355842
C 0.365230 0.197990 0.046410 0.354962
C 0.365230 0.046410 0.197990 0.354926
C 0.453590 0.134770 0.197990 0.355671
C 0.634770 0.953590 0.197990 0.355219
C 0.546410 0.865230 0.197990 0.354901
C 0.697990 0.865230 0.046410 0.355164
C 0.697990 0.953590 0.134770 0.354876
C 0.697990 0.134770 0.953590 0.355142
C 0.697990 0.046410 0.865230 0.354878
C 0.953590 0.197990 0.365230 0.355127
C 0.802010 0.134770 0.453590 0.355220
C 0.802010 0.046410 0.365230 0.354858
C 0.865230 0.197990 0.453590 0.354873
C 0.802010 0.865230 0.546410 0.354854
C 0.802010 0.953590 0.634770 0.355148
C 0.953590 0.802010 0.634770 0.354867
C 0.865230 0.802010 0.546410 0.354979
C 0.046410 0.802010 0.365230 0.355147
C 0.134770 0.802010 0.453590 0.354730
C 0.134770 0.953590 0.302010 0.355127
C 0.046410 0.865230 0.302010 0.354850
C 0.865230 0.046410 0.302010 0.354917
C 0.953590 0.134770 0.302010 0.354652
C 0.134770 0.453590 0.802010 0.355149
C 0.197990 0.365230 0.953590 0.355160
C 0.197990 0.453590 0.865230 0.354734
C 0.046410 0.365230 0.802010 0.354835
C 0.953590 0.302010 0.134770 0.354992
C 0.865230 0.302010 0.046410 0.354854
C 0.046410 0.302010 0.865230 0.354969
C 0.134770 0.302010 0.953590 0.354818
C 0.865230 0.546410 0.802010 0.354865
C 0.953590 0.634770 0.802010 0.355207
C 0.802010 0.634770 0.953590 0.355095
C 0.802010 0.546410 0.865230 0.354675
C 0.802010 0.365230 0.046410 0.355143
C 0.802010 0.453590 0.134770 0.354878
C 0.634770 0.453590 0.302010 0.355169
C 0.697990 0.365230 0.453590 0.355171
C 0.697990 0.453590 0.365230 0.354925
C 0.546410 0.365230 0.302010 0.354909
C 0.453590 0.302010 0.634770 0.355151
C 0.365230 0.453590 0.697990 0.354930
C 0.453590 0.365230 0.697990 0.354645
C 0.365230 0.302010 0.546410 0.354910
C 0.453590 0.697990 0.365230 0.355209
C 0.302010 0.634770 0.453590 0.354995
C 0.302010 0.546410 0.365230 0.354857
C 0.365230 0.697990 0.453590 0.354876
C 0.546410 0.302010 0.365230 0.355153
C 0.634770 0.302010 0.453590 0.354927
C 0.365230 0.546410 0.302010 0.355146
C 0.453590 0.634770 0.302010 0.354873
C 0.302010 0.365230 0.546410 0.355131
C 0.302010 0.453590 0.634770 0.354858
C 0.453590 0.197990 0.865230 0.355038
C 0.365230 0.197990 0.953590 0.354894
C 0.802010 0.134770 0.546410 0.355099
C 0.802010 0.046410 0.634770 0.354708
C 0.134770 0.546410 0.802010 0.355221
C 0.046410 0.634770 0.802010 0.354885
C 0.697990 0.865230 0.953590 0.354746
C 0.697990 0.953590 0.865230 0.355183
C 0.134770 0.046410 0.302010 0.354931
C 0.046410 0.134770 0.302010 0.355170
C 0.046410 0.302010 0.134770 0.354811
C 0.134770 0.302010 0.046410 0.354984
C 0.491600 0.285900 0.238400 -0.039173
C 0.491600 0.261600 0.214100 -0.039081
C 0.761600 0.214100 0.991600 -0.039077
C 0.785900 0.238400 0.991600 -0.039180
C 0.714100 0.761600 0.508400 -0.039123
C 0.714100 0.008400 0.261600 -0.039078
C 0.738400 0.785900 0.508400 -0.039134
C 0.738400 0.008400 0.285900 -0.039180
C 0.761600 0.508400 0.714100 -0.039134
C 0.785900 0.508400 0.738400 -0.039122
C 0.008400 0.285900 0.738400 -0.039180
C 0.008400 0.261600 0.714100 -0.039077
C 0.491600 0.238400 0.714100 -0.038447
C 0.491600 0.214100 0.738400 -0.039471
C 0.714100 0.238400 0.508400 -0.039708
C 0.738400 0.214100 0.508400 -0.038838
C 0.761600 0.508400 0.285900 -0.039707
C 0.785900 0.508400 0.261600 -0.038838
C 0.761600 0.008400 0.785900 -0.039967
C 0.785900 0.008400 0.761600 -0.038272
C 0.285900 0.261600 0.008400 -0.040003
C 0.261600 0.285900 0.008400 -0.038235
C 0.991600 0.285900 0.261600 -0.039968
C 0.991600 0.261600 0.285900 -0.038270
C 0.534000 0.256200 0.268100 -0.041132
C 0.534000 0.231900 0.243800 -0.041172
C 0.731900 0.243800 0.034000 -0.041171
C 0.756200 0.268100 0.034000 -0.041135
C 0.743800 0.731900 0.466000 -0.041130
C 0.743800 0.966000 0.231900 -0.041171
C 0.768100 0.756200 0.466000 -0.041181
C 0.768100 0.966000 0.256200 -0.041137
C 0.731900 0.466000 0.743800 -0.041138
C 0.756200 0.466000 0.768100 -0.041170
C 0.966000 0.256200 0.768100 -0.041138
C 0.966000 0.231900 0.743800 -0.041171
C 0.534000 0.268100 0.743800 -0.041271
C 0.534000 0.243800 0.768100 -0.041093
C 0.743800 0.268100 0.466000 -0.040942
C 0.768100 0.243800 0.466000 -0.041266
C 0.731900 0.466000 0.256200 -0.040940
C 0.756200 0.466000 0.231900 -0.041265
C 0.731900 0.966000 0.756200 -0.040954
C 0.756200 0.966000 0.731900 -0.041340
C 0.256200 0.231900 0.966000 -0.040902
C 0.231900 0.256200 0.966000 -0.041390
C 0.034000 0.256200 0.231900 -0.040955
C 0.034000 0.231900 0.256200 -0.041339
C 0.476400 0.244800 0.278800 -0.030698
C 0.476400 0.221200 0.255200 -0.030775
C 0.721200 0.255200 0.976400 -0.030703
C 0.744800 0.278800 0.976400 -0.030771
C 0.755200 0.721200 0.523600 -0.030712
C 0.755200 0.023600 0.221200 -0.030704
C 0.778800 0.744800 0.523600 -0.030763
C 0.778800 0.023600 0.244800 -0.030771
C 0.721200 0.523600 0.755200 -0.030788
C 0.744800 0.523600 0.778800 -0.030686
C 0.023600 0.244800 0.778800 -0.030770
C 0.023600 0.221200 0.755200 -0.030704
C 0.476400 0.278800 0.755200 -0.031100
C 0.476400 0.255200 0.778800 -0.030565
C 0.755200 0.278800 0.523600 -0.030264
C 0.778800 0.255200 0.523600 -0.030934
C 0.721200 0.523600 0.244800 -0.030264
C 0.744800 0.523600 0.221200 -0.030935
C 0.721200 0.023600 0.744800 -0.030076
C 0.744800 0.023600 0.721200 -0.031369
C 0.244800 0.221200 0.023600 -0.030009
C 0.221200 0.244800 0.023600 -0.031434
C 0.976400 0.244800 0.221200 -0.030077
C 0.976400 0.221200 0.244800 -0.031368
H 0.581500 0.180800 0.081500 0.066748
H 0.581500 0.081500 0.180800 0.066784
H 0.680800 0.081500 0.081500 0.067156
H 0.918500 0.819200 0.418500 0.067215
H 0.918500 0.918500 0.319200 0.067259
H 0.819200 0.918500 0.418500 0.067160
H 0.918500 0.319200 0.918500 0.067203
H 0.918500 0.418500 0.819200 0.067160
H 0.819200 0.418500 0.918500 0.067265
H 0.418500 0.319200 0.418500 0.067263
H 0.418500 0.418500 0.319200 0.067264
H 0.319200 0.418500 0.418500 0.067269
H 0.581500 0.180800 0.918500 0.067193
H 0.581500 0.081500 0.819200 0.067176
H 0.418500 0.180800 0.081500 0.066770
H 0.418500 0.081500 0.180800 0.066834
H 0.581500 0.918500 0.180800 0.067124
H 0.680800 0.918500 0.081500 0.067145
H 0.680800 0.081500 0.918500 0.067169
H 0.918500 0.180800 0.418500 0.067197
H 0.819200 0.081500 0.418500 0.067185
H 0.819200 0.918500 0.581500 0.067204
H 0.918500 0.819200 0.581500 0.067250
H 0.081500 0.819200 0.418500 0.067238
H 0.081500 0.918500 0.319200 0.067195
H 0.918500 0.081500 0.319200 0.067329
H 0.081500 0.418500 0.819200 0.067212
H 0.180800 0.418500 0.918500 0.067231
H 0.918500 0.319200 0.081500 0.067239
H 0.081500 0.319200 0.918500 0.067267
H 0.918500 0.581500 0.819200 0.067179
H 0.819200 0.581500 0.918500 0.067261
H 0.819200 0.418500 0.081500 0.067195
H 0.581500 0.418500 0.319200 0.067183
H 0.680800 0.418500 0.418500 0.067183
H 0.418500 0.319200 0.581500 0.067196
H 0.418500 0.418500 0.680800 0.067320
H 0.418500 0.680800 0.418500 0.067185
H 0.319200 0.581500 0.418500 0.067257
H 0.581500 0.319200 0.418500 0.067180
H 0.418500 0.581500 0.319200 0.067193
H 0.319200 0.418500 0.581500 0.067195
H 0.418500 0.180800 0.918500 0.067179
H 0.819200 0.081500 0.581500 0.067270
H 0.081500 0.581500 0.819200 0.067193
H 0.680800 0.918500 0.918500 0.067146
H 0.081500 0.081500 0.319200 0.067173
H 0.081500 0.319200 0.081500 0.067262
H 0.577000 0.256800 0.147300 0.108193
H 0.647300 0.077000 0.256800 0.108415
H 0.756800 0.147300 0.077000 0.108393
H 0.756800 0.077000 0.147300 0.111046
H 0.577000 0.147300 0.256800 0.110546
H 0.647300 0.256800 0.077000 0.110542
H 0.923000 0.743200 0.352700 0.108507
H 0.852700 0.923000 0.243200 0.108520
H 0.743200 0.852700 0.423000 0.108301
H 0.743200 0.923000 0.352700 0.110528
H 0.923000 0.852700 0.243200 0.111092
H 0.852700 0.743200 0.423000 0.110696
H 0.923000 0.243200 0.852700 0.108454
H 0.852700 0.423000 0.743200 0.108299
H 0.743200 0.352700 0.923000 0.108889
H 0.743200 0.423000 0.852700 0.110746
H 0.923000 0.352700 0.743200 0.110524
H 0.852700 0.243200 0.923000 0.110699
H 0.423000 0.243200 0.352700 0.111099
H 0.352700 0.423000 0.243200 0.108895
H 0.243200 0.352700 0.423000 0.111119
H 0.243200 0.423000 0.352700 0.108563
H 0.423000 0.352700 0.243200 0.110762
H 0.352700 0.243200 0.423000 0.108545
H 0.577000 0.256800 0.852700 0.108499
H 0.647300 0.077000 0.743200 0.108827
H 0.577000 0.147300 0.743200 0.110613
H 0.647300 0.256800 0.923000 0.111074
H 0.423000 0.256800 0.147300 0.108343
H 0.352700 0.256800 0.077000 0.110581
H 0.352700 0.077000 0.256800 0.110667
H 0.423000 0.147300 0.256800 0.108736
H 0.647300 0.923000 0.256800 0.108337
H 0.577000 0.852700 0.256800 0.110659
H 0.756800 0.852700 0.077000 0.108417
H 0.756800 0.923000 0.147300 0.110643
H 0.756800 0.147300 0.923000 0.108492
H 0.756800 0.077000 0.852700 0.110712
H 0.923000 0.256800 0.352700 0.108478
H 0.743200 0.147300 0.423000 0.108347
H 0.743200 0.077000 0.352700 0.110680
H 0.852700 0.256800 0.423000 0.110664
H 0.743200 0.852700 0.577000 0.110714
H 0.743200 0.923000 0.647300 0.108435
H 0.923000 0.743200 0.647300 0.110655
H 0.852700 0.743200 0.577000 0.108853
H 0.077000 0.743200 0.352700 0.108412
H 0.147300 0.743200 0.423000 0.111061
H 0.147300 0.923000 0.243200 0.108470
H 0.077000 0.852700 0.243200 0.110660
H 0.852700 0.077000 0.243200 0.108961
H 0.923000 0.147300 0.243200 0.111191
H 0.147300 0.423000 0.743200 0.108498
H 0.256800 0.352700 0.923000 0.108399
H 0.256800 0.423000 0.852700 0.111047
H 0.077000 0.352700 0.743200 0.110712
H 0.923000 0.243200 0.147300 0.108837
H 0.852700 0.243200 0.077000 0.110627
H 0.077000 0.243200 0.852700 0.108893
H 0.147300 0.243200 0.923000 0.110758
H 0.852700 0.577000 0.743200 0.110668
H 0.923000 0.647300 0.743200 0.108317
H 0.743200 0.647300 0.923000 0.108568
H 0.743200 0.577000 0.852700 0.111079
H 0.743200 0.352700 0.077000 0.108453
H 0.743200 0.423000 0.147300 0.110659
H 0.647300 0.423000 0.243200 0.108431
H 0.756800 0.352700 0.423000 0.108434
H 0.756800 0.423000 0.352700 0.110557
H 0.577000 0.352700 0.243200 0.110560
H 0.423000 0.243200 0.647300 0.108479
H 0.352700 0.423000 0.756800 0.108949
H 0.423000 0.352700 0.756800 0.111165
H 0.352700 0.243200 0.577000 0.110586
H 0.423000 0.756800 0.352700 0.108345
H 0.243200 0.647300 0.423000 0.108873
H 0.243200 0.577000 0.352700 0.110664
H 0.352700 0.756800 0.423000 0.110668
H 0.577000 0.243200 0.352700 0.108417
H 0.647300 0.243200 0.423000 0.110553
H 0.352700 0.577000 0.243200 0.108446
H 0.423000 0.647300 0.243200 0.110650
H 0.243200 0.352700 0.577000 0.108436
H 0.243200 0.423000 0.647300 0.110693
H 0.423000 0.256800 0.852700 0.108837
H 0.352700 0.256800 0.923000 0.110609
H 0.743200 0.147300 0.577000 0.108566
H 0.743200 0.077000 0.647300 0.111118
H 0.147300 0.577000 0.743200 0.108354
H 0.077000 0.647300 0.743200 0.110697
H 0.756800 0.852700 0.923000 0.111039
H 0.756800 0.923000 0.852700 0.108365
H 0.147300 0.077000 0.243200 0.110560
H 0.077000 0.147300 0.243200 0.108398
H 0.077000 0.243200 0.147300 0.110757
H 0.147300 0.243200 0.077000 0.108881
H 0.614200 0.302200 0.146200 0.236704
H 0.646200 0.114200 0.302200 0.236843
H 0.802200 0.146200 0.114200 0.236854
H 0.885800 0.697800 0.353800 0.236932
H 0.853800 0.885800 0.197800 0.236989
H 0.697800 0.853800 0.385800 0.236740
H 0.885800 0.197800 0.853800 0.236895
H 0.853800 0.385800 0.697800 0.236729
H 0.697800 0.353800 0.885800 0.237098
H 0.353800 0.385800 0.197800 0.237078
H 0.197800 0.385800 0.353800 0.237003
H 0.353800 0.197800 0.385800 0.236985
H 0.614200 0.302200 0.853800 0.236970
H 0.646200 0.114200 0.697800 0.237020
H 0.385800 0.302200 0.146200 0.236775
H 0.385800 0.146200 0.302200 0.237005
H 0.646200 0.885800 0.302200 0.236790
H 0.802200 0.853800 0.114200 0.236864
H 0.802200 0.146200 0.885800 0.236905
H 0.885800 0.302200 0.353800 0.236909
H 0.697800 0.146200 0.385800 0.236807
H 0.697800 0.885800 0.646200 0.236889
H 0.853800 0.697800 0.614200 0.237048
H 0.114200 0.697800 0.353800 0.236887
H 0.146200 0.885800 0.197800 0.236886
H 0.853800 0.114200 0.197800 0.237193
H 0.146200 0.385800 0.697800 0.236914
H 0.302200 0.353800 0.885800 0.236854
H 0.885800 0.197800 0.146200 0.237018
H 0.114200 0.197800 0.853800 0.237106
H 0.885800 0.646200 0.697800 0.236763
H 0.697800 0.646200 0.885800 0.236984
H 0.697800 0.353800 0.114200 0.236913
H 0.646200 0.385800 0.197800 0.236866
H 0.802200 0.353800 0.385800 0.236869
H 0.385800 0.197800 0.646200 0.236880
H 0.353800 0.385800 0.802200 0.237172
H 0.385800 0.802200 0.353800 0.236783
H 0.197800 0.646200 0.385800 0.237071
H 0.614200 0.197800 0.353800 0.236861
H 0.353800 0.614200 0.197800 0.236884
H 0.197800 0.353800 0.614200 0.236889
H 0.385800 0.302200 0.853800 0.237011
H 0.697800 0.146200 0.614200 0.237011
H 0.146200 0.614200 0.697800 0.236821
H 0.802200 0.885800 0.853800 0.236842
H 0.114200 0.146200 0.197800 0.236825
H 0.146200 0.197800 0.114200 0.237095
H 0.650300 0.293100 0.133900 0.236506
H 0.633900 0.150300 0.293100 0.236568
H 0.793100 0.133900 0.150300 0.236627
H 0.849700 0.706900 0.366100 0.236650
H 0.866100 0.849700 0.206900 0.236742
H 0.706900 0.866100 0.349700 0.236453
H 0.849700 0.206900 0.866100 0.236569
H 0.866100 0.349700 0.706900 0.236443
H 0.706900 0.366100 0.849700 0.236787
H 0.366100 0.349700 0.206900 0.236652
H 0.206900 0.349700 0.366100 0.236709
H 0.366100 0.206900 0.349700 0.236681
H 0.650300 0.293100 0.866100 0.236722
H 0.633900 0.150300 0.706900 0.236622
H 0.349700 0.293100 0.133900 0.236399
H 0.349700 0.133900 0.293100 0.236687
H 0.633900 0.849700 0.293100 0.236488
H 0.793100 0.866100 0.150300 0.236641
H 0.793100 0.133900 0.849700 0.236539
H 0.849700 0.293100 0.366100 0.236641
H 0.706900 0.133900 0.349700 0.236512
H 0.706900 0.849700 0.633900 0.236563
H 0.866100 0.706900 0.650300 0.236644
H 0.150300 0.706900 0.366100 0.236654
H 0.133900 0.849700 0.206900 0.236615
H 0.866100 0.150300 0.206900 0.236855
H 0.133900 0.349700 0.706900 0.236549
H 0.293100 0.366100 0.849700 0.236624
H 0.849700 0.206900 0.133900 0.236629
H 0.150300 0.206900 0.866100 0.236790
H 0.849700 0.633900 0.706900 0.236450
H 0.706900 0.633900 0.849700 0.236671
H 0.706900 0.366100 0.150300 0.236685
H 0.633900 0.349700 0.206900 0.236564
H 0.793100 0.366100 0.349700 0.236554
H 0.349700 0.206900 0.633900 0.236518
H 0.366100 0.349700 0.793100 0.236834
H 0.349700 0.793100 0.366100 0.236481
H 0.206900 0.633900 0.349700 0.236669
H 0.650300 0.206900 0.366100 0.236550
H 0.366100 0.650300 0.206900 0.236653
H 0.206900 0.366100 0.650300 0.236562
H 0.349700 0.293100 0.866100 0.236613
H 0.706900 0.133900 0.650300 0.236710
H 0.133900 0.650300 0.706900 0.236523
H 0.793100 0.849700 0.866100 0.236609
H 0.150300 0.133900 0.206900 0.236514
H 0.133900 0.206900 0.150300 0.236783
H 0.625500 0.311800 0.109900 0.237249
H 0.609900 0.125500 0.311800 0.237380
H 0.811800 0.109900 0.125500 0.237468
H 0.874500 0.688200 0.390100 0.237478
H 0.890100 0.874500 0.188200 0.237527
H 0.688200 0.890100 0.374500 0.237311
H 0.874500 0.188200 0.890100 0.237454
H 0.890100 0.374500 0.688200 0.237298
H 0.688200 0.390100 0.874500 0.237534
H 0.390100 0.374500 0.188200 0.237597
H 0.188200 0.374500 0.390100 0.237604
H 0.390100 0.188200 0.374500 0.237589
H 0.625500 0.311800 0.890100 0.237507
H 0.609900 0.125500 0.688200 0.237478
H 0.374500 0.311800 0.109900 0.237376
H 0.374500 0.109900 0.311800 0.237458
H 0.609900 0.874500 0.311800 0.237420
H 0.811800 0.890100 0.125500 0.237342
H 0.811800 0.109900 0.874500 0.237515
H 0.874500 0.311800 0.390100 0.237436
H 0.688200 0.109900 0.374500 0.237438
H 0.688200 0.874500 0.609900 0.237460
H 0.890100 0.688200 0.625500 0.237519
H 0.125500 0.688200 0.390100 0.237508
H 0.109900 0.874500 0.188200 0.237414
H 0.890100 0.125500 0.188200 0.237706
H 0.109900 0.374500 0.688200 0.237521
H 0.311800 0.390100 0.874500 0.237469
H 0.874500 0.188200 0.109900 0.237468
H 0.125500 0.188200 0.890100 0.237553
H 0.874500 0.609900 0.688200 0.237412
H 0.688200 0.609900 0.874500 0.237571
H 0.688200 0.390100 0.125500 0.237388
H 0.609900 0.374500 0.188200 0.237352
H 0.811800 0.390100 0.374500 0.237368
H 0.374500 0.188200 0.609900 0.237437
H 0.390100 0.374500 0.811800 0.237675
H 0.374500 0.811800 0.390100 0.237418
H 0.188200 0.609900 0.374500 0.237541
H 0.625500 0.188200 0.390100 0.237354
H 0.390100 0.625500 0.188200 0.237363
H 0.188200 0.390100 0.625500 0.237451
H 0.374500 0.311800 0.890100 0.237463
H 0.688200 0.109900 0.625500 0.237617
H 0.109900 0.625500 0.688200 0.237461
H 0.811800 0.874500 0.890100 0.237466
H 0.125500 0.109900 0.188200 0.237328
H 0.109900 0.188200 0.125500 0.237540
H 0.535300 0.243050 0.292650 0.032267
H 0.464700 0.292650 0.243050 0.031317
H 0.464700 0.256950 0.207350 0.031244
H 0.756950 0.207350 0.964700 0.031241
H 0.535300 0.207350 0.256950 0.032360
H 0.707350 0.256950 0.035300 0.032356
H 0.743050 0.292650 0.035300 0.032273
H 0.792650 0.243050 0.964700 0.031338
H 0.756950 0.707350 0.464700 0.032262
H 0.707350 0.756950 0.535300 0.031239
H 0.707350 0.035300 0.256950 0.031246
H 0.756950 0.964700 0.207350 0.032352
H 0.792650 0.964700 0.243050 0.032270
H 0.743050 0.792650 0.535300 0.031334
H 0.743050 0.035300 0.292650 0.031340
H 0.792650 0.743050 0.464700 0.032365
H 0.707350 0.464700 0.756950 0.032273
H 0.756950 0.535300 0.707350 0.031253
H 0.964700 0.243050 0.792650 0.032272
H 0.792650 0.535300 0.743050 0.031318
H 0.743050 0.464700 0.792650 0.032349
H 0.035300 0.292650 0.743050 0.031339
H 0.035300 0.256950 0.707350 0.031243
H 0.964700 0.207350 0.756950 0.032351
H 0.464700 0.243050 0.707350 0.031080
H 0.535300 0.292650 0.756950 0.032316
H 0.535300 0.256950 0.792650 0.032194
H 0.464700 0.207350 0.743050 0.031345
H 0.756950 0.292650 0.464700 0.032237
H 0.707350 0.243050 0.535300 0.031425
H 0.743050 0.207350 0.535300 0.031122
H 0.792650 0.256950 0.464700 0.032318
H 0.707350 0.464700 0.243050 0.032236
H 0.756950 0.535300 0.292650 0.031424
H 0.792650 0.535300 0.256950 0.031124
H 0.743050 0.464700 0.207350 0.032318
H 0.707350 0.964700 0.743050 0.032310
H 0.756950 0.035300 0.792650 0.031488
H 0.792650 0.035300 0.756950 0.031024
H 0.743050 0.964700 0.707350 0.032254
H 0.243050 0.207350 0.964700 0.032207
H 0.292650 0.256950 0.035300 0.031476
H 0.256950 0.292650 0.035300 0.031033
H 0.207350 0.243050 0.964700 0.032351
H 0.035300 0.243050 0.207350 0.032306
H 0.964700 0.292650 0.256950 0.031493
H 0.964700 0.256950 0.292650 0.031027
H 0.035300 0.207350 0.243050 0.032251
H 0.487350 0.233750 0.301850 0.027600
H 0.512650 0.301850 0.233750 0.031725
H 0.512650 0.266250 0.198150 0.031690
H 0.766250 0.198150 0.012650 0.031692
H 0.487350 0.198150 0.266250 0.027580
H 0.698150 0.266250 0.987350 0.027581
H 0.733750 0.301850 0.987350 0.027593
H 0.801850 0.233750 0.012650 0.031725
H 0.766250 0.698150 0.512650 0.027607
H 0.698150 0.766250 0.487350 0.031733
H 0.698150 0.987350 0.266250 0.031698
H 0.766250 0.012650 0.198150 0.027582
H 0.801850 0.012650 0.233750 0.027593
H 0.733750 0.801850 0.487350 0.031695
H 0.733750 0.987350 0.301850 0.031732
H 0.801850 0.733750 0.512650 0.027581
H 0.698150 0.512650 0.766250 0.027601
H 0.766250 0.487350 0.698150 0.031733
H 0.012650 0.233750 0.801850 0.027596
H 0.801850 0.487350 0.733750 0.031692
H 0.733750 0.512650 0.801850 0.027575
H 0.987350 0.301850 0.733750 0.031732
H 0.987350 0.266250 0.698150 0.031695
H 0.012650 0.198150 0.766250 0.027583
H 0.512650 0.233750 0.698150 0.031530
H 0.487350 0.301850 0.766250 0.027615
H 0.487350 0.266250 0.801850 0.027479
H 0.512650 0.198150 0.733750 0.031743
H 0.766250 0.301850 0.512650 0.027485
H 0.698150 0.233750 0.487350 0.031820
H 0.733750 0.198150 0.487350 0.031573
H 0.801850 0.266250 0.512650 0.027581
H 0.698150 0.512650 0.233750 0.027477
H 0.766250 0.487350 0.301850 0.031820
H 0.801850 0.487350 0.266250 0.031575
H 0.733750 0.512650 0.198150 0.027576
H 0.698150 0.012650 0.733750 0.027414
H 0.766250 0.987350 0.801850 0.031858
H 0.801850 0.987350 0.766250 0.031498
H 0.733750 0.012650 0.698150 0.027704
H 0.233750 0.198150 0.012650 0.027432
H 0.301850 0.266250 0.987350 0.031889
H 0.266250 0.301850 0.987350 0.031463
H 0.198150 0.233750 0.012650 0.027676
H 0.987350 0.233750 0.198150 0.027411
H 0.012650 0.301850 0.266250 0.031863
H 0.012650 0.266250 0.301850 0.031500
H 0.987350 0.198150 0.233750 0.027697
H 0.451900 0.258600 0.277050 0.027519
H 0.548100 0.277050 0.258600 0.032718
H 0.548100 0.241400 0.222950 0.032699
H 0.741400 0.222950 0.048100 0.032698
H 0.451900 0.222950 0.241400 0.027574
H 0.722950 0.241400 0.951900 0.027559
H 0.758600 0.277050 0.951900 0.027553
H 0.777050 0.258600 0.048100 0.032713
H 0.741400 0.722950 0.548100 0.027557
H 0.722950 0.741400 0.451900 0.032710
H 0.722950 0.951900 0.241400 0.032700
H 0.741400 0.048100 0.222950 0.027560
H 0.777050 0.048100 0.258600 0.027549
H 0.758600 0.777050 0.451900 0.032698
H 0.758600 0.951900 0.277050 0.032714
H 0.777050 0.758600 0.548100 0.027546
H 0.722950 0.548100 0.741400 0.027579
H 0.741400 0.451900 0.722950 0.032715
H 0.048100 0.258600 0.777050 0.027551
H 0.777050 0.451900 0.758600 0.032697
H 0.758600 0.548100 0.777050 0.027515
H 0.951900 0.277050 0.758600 0.032712
H 0.951900 0.241400 0.722950 0.032695
H 0.048100 0.222950 0.741400 0.027561
H 0.548100 0.258600 0.722950 0.032720
H 0.451900 0.277050 0.741400 0.027628
H 0.451900 0.241400 0.777050 0.027441
H 0.548100 0.222950 0.758600 0.032639
H 0.741400 0.277050 0.548100 0.027399
H 0.722950 0.258600 0.451900 0.032619
H 0.758600 0.222950 0.451900 0.032660
H 0.777050 0.241400 0.548100 0.027546
H 0.722950 0.548100 0.258600 0.027395
H 0.741400 0.451900 0.277050 0.032621
H 0.777050 0.451900 0.241400 0.032664
H 0.758600 0.548100 0.222950 0.027544
H 0.722950 0.048100 0.758600 0.027350
H 0.741400 0.951900 0.777050 0.032587
H 0.777050 0.951900 0.741400 0.032756
H 0.758600 0.048100 0.722950 0.027688
H 0.258600 0.222950 0.048100 0.027327
H 0.277050 0.241400 0.951900 0.032601
H 0.241400 0.277050 0.951900 0.032741
H 0.222950 0.258600 0.048100 0.027708
H 0.951900 0.258600 0.222950 0.027353
H 0.048100 0.277050 0.241400 0.032587
H 0.048100 0.241400 0.277050 0.032754
H 0.951900 0.222950 0.258600 0.027689
N 0.500000 0.271100 0.271100 -0.176552
N 0.500000 0.228900 0.228900 -0.176558
N 0.728900 0.228900 0.000000 -0.176555
N 0.771100 0.271100 0.000000 -0.176538
N 0.728900 0.728900 0.500000 -0.176552
N 0.728900 0.000000 0.228900 -0.176555
N 0.771100 0.000000 0.271100 -0.176538
N 0.771100 0.771100 0.500000 -0.176541
N 0.728900 0.500000 0.728900 -0.176536
N 0.000000 0.271100 0.771100 -0.176537
N 0.771100 0.500000 0.771100 -0.176558
N 0.000000 0.228900 0.728900 -0.176556
N 0.500000 0.271000 0.728900 -0.176187
N 0.500000 0.229000 0.771000 -0.175826
N 0.729000 0.271100 0.500000 -0.176190
N 0.771000 0.229000 0.500000 -0.175836
N 0.728900 0.500000 0.271000 -0.176191
N 0.771000 0.500000 0.229000 -0.175836
N 0.728900 0.000000 0.771000 -0.176200
N 0.771100 0.000000 0.729000 -0.176178
N 0.271000 0.228900 0.000000 -0.176212
N 0.229000 0.271100 0.000000 -0.176168
N 0.000000 0.271000 0.228900 -0.176200
N 0.000000 0.229000 0.271100 -0.176179
O 0.535710 0.171850 0.121780 -0.464258
O 0.621780 0.035710 0.171850 -0.464456
O 0.671850 0.121780 0.035710 -0.464369
O 0.671850 0.035710 0.121780 -0.464314
O 0.535710 0.121780 0.171850 -0.464199
O 0.621780 0.171850 0.035710 -0.464424
O 0.964290 0.828150 0.378220 -0.464289
O 0.878220 0.964290 0.328150 -0.464289
O 0.828150 0.878220 0.464290 -0.464309
O 0.828150 0.964290 0.378220 -0.464252
O 0.964290 0.878220 0.328150 -0.464225
O 0.878220 0.828150 0.464290 -0.464238
O 0.964290 0.328150 0.878220 -0.464300
O 0.878220 0.464290 0.828150 -0.464307
O 0.828150 0.378220 0.964290 -0.464273
O 0.828150 0.464290 0.878220 -0.464237
O 0.964290 0.378220 0.828150 -0.464251
O 0.878220 0.328150 0.964290 -0.464247
O 0.464290 0.328150 0.378220 -0.464222
O 0.378220 0.464290 0.328150 -0.464273
O 0.328150 0.378220 0.464290 -0.464217
O 0.328150 0.464290 0.378220 -0.464286
O 0.464290 0.378220 0.328150 -0.464240
O 0.378220 0.328150 0.464290 -0.464289
O 0.535710 0.171850 0.878220 -0.464355
O 0.621780 0.035710 0.828150 -0.464364
O 0.535710 0.121780 0.828150 -0.464302
O 0.621780 0.171850 0.964290 -0.464301
O 0.464290 0.171850 0.121780 -0.464251
O 0.378220 0.171850 0.035710 -0.464423
O 0.378220 0.035710 0.171850 -0.464402
O 0.464290 0.121780 0.171850 -0.464235
O 0.621780 0.964290 0.171850 -0.464369
O 0.535710 0.878220 0.171850 -0.464312
O 0.671850 0.878220 0.035710 -0.464362
O 0.671850 0.964290 0.121780 -0.464304
O 0.671850 0.121780 0.964290 -0.464340
O 0.671850 0.035710 0.878220 -0.464289
O 0.964290 0.171850 0.378220 -0.464307
O 0.828150 0.121780 0.464290 -0.464303
O 0.828150 0.035710 0.378220 -0.464248
O 0.878220 0.171850 0.464290 -0.464260
O 0.828150 0.878220 0.535710 -0.464236
O 0.828150 0.964290 0.621780 -0.464308
O 0.964290 0.828150 0.621780 -0.464230
O 0.878220 0.828150 0.535710 -0.464279
O 0.035710 0.828150 0.378220 -0.464287
O 0.121780 0.828150 0.464290 -0.464236
O 0.121780 0.964290 0.328150 -0.464309
O 0.035710 0.878220 0.328150 -0.464256
O 0.878220 0.035710 0.328150 -0.464260
O 0.964290 0.121780 0.328150 -0.464207
O 0.121780 0.464290 0.828150 -0.464295
O 0.171850 0.378220 0.964290 -0.464294
O 0.171850 0.464290 0.878220 -0.464240
O 0.035710 0.378220 0.828150 -0.464241
O 0.964290 0.328150 0.121780 -0.464289
O 0.878220 0.328150 0.035710 -0.464239
O 0.035710 0.328150 0.878220 -0.464272
O 0.121780 0.328150 0.964290 -0.464238
O 0.878220 0.535710 0.828150 -0.464245
O 0.964290 0.621780 0.828150 -0.464308
O 0.828150 0.621780 0.964290 -0.464283
O 0.828150 0.535710 0.878220 -0.464230
O 0.828150 0.378220 0.035710 -0.464303
O 0.828150 0.464290 0.121780 -0.464260
O 0.621780 0.464290 0.328150 -0.464305
O 0.671850 0.378220 0.464290 -0.464302
O 0.671850 0.464290 0.378220 -0.464252
O 0.535710 0.378220 0.328150 -0.464247
O 0.464290 0.328150 0.621780 -0.464295
O 0.378220 0.464290 0.671850 -0.464265
O 0.464290 0.378220 0.671850 -0.464219
O 0.378220 0.328150 0.535710 -0.464237
O 0.464290 0.671850 0.378220 -0.464296
O 0.328150 0.621780 0.464290 -0.464273
O 0.328150 0.535710 0.378220 -0.464224
O 0.378220 0.671850 0.464290 -0.464252
O 0.535710 0.328150 0.378220 -0.464308
O 0.621780 0.328150 0.464290 -0.464251
O 0.378220 0.535710 0.328150 -0.464303
O 0.464290 0.621780 0.328150 -0.464260
O 0.328150 0.378220 0.535710 -0.464310
O 0.328150 0.464290 0.621780 -0.464253
O 0.464290 0.171850 0.878220 -0.464341
O 0.378220 0.171850 0.964290 -0.464313
O 0.828150 0.121780 0.535710 -0.464284
O 0.828150 0.035710 0.621780 -0.464216
O 0.121780 0.535710 0.828150 -0.464297
O 0.035710 0.621780 0.828150 -0.464238
O 0.671850 0.878220 0.964290 -0.464317
O 0.671850 0.964290 0.878220 -0.464385
O 0.121780 0.035710 0.328150 -0.464248
O 0.035710 0.121780 0.328150 -0.464319
O 0.035710 0.328150 0.121780 -0.464236
O 0.121780 0.328150 0.035710 -0.464283
O 0.535650 0.211280 0.161070 -0.447397
O 0.661070 0.035650 0.211280 -0.447833
O 0.711280 0.161070 0.035650 -0.447879
O 0.711280 0.035650 0.161070 -0.447692
O 0.535650 0.161070 0.211280 -0.447300
O 0.661070 0.211280 0.035650 -0.447851
O 0.964350 0.788720 0.338930 -0.447797
O 0.838930 0.964350 0.288720 -0.447787
O 0.788720 0.838930 0.464350 -0.447906
O 0.788720 0.964350 0.338930 -0.447891
O 0.964350 0.838930 0.288720 -0.447675
O 0.838930 0.788720 0.464350 -0.447784
O 0.964350 0.288720 0.838930 -0.447799
O 0.838930 0.464350 0.788720 -0.447904
O 0.788720 0.338930 0.964350 -0.447667
O 0.788720 0.464350 0.838930 -0.447794
O 0.964350 0.338930 0.788720 -0.447891
O 0.838930 0.288720 0.964350 -0.447812
O 0.464350 0.288720 0.338930 -0.447678
O 0.338930 0.464350 0.288720 -0.447650
O 0.288720 0.338930 0.464350 -0.447655
O 0.288720 0.464350 0.338930 -0.447789
O 0.464350 0.338930 0.288720 -0.447824
O 0.338930 0.288720 0.464350 -0.447810
O 0.535650 0.211280 0.838930 -0.447861
O 0.661070 0.035650 0.788720 -0.447729
O 0.535650 0.161070 0.788720 -0.447947
O 0.661070 0.211280 0.964350 -0.447687
O 0.464350 0.211280 0.161070 -0.447299
O 0.338930 0.211280 0.035650 -0.447913
O 0.338930 0.035650 0.211280 -0.447835
O 0.464350 0.161070 0.211280 -0.447181
O 0.661070 0.964350 0.211280 -0.447888
O 0.535650 0.838930 0.211280 -0.447887
O 0.711280 0.838930 0.035650 -0.447849
O 0.711280 0.964350 0.161070 -0.447818
O 0.711280 0.161070 0.964350 -0.447806
O 0.711280 0.035650 0.838930 -0.447836
O 0.964350 0.211280 0.338930 -0.447847
O 0.788720 0.161070 0.464350 -0.447942
O 0.788720 0.035650 0.338930 -0.447815
O 0.838930 0.211280 0.464350 -0.447872
O 0.788720 0.838930 0.535650 -0.447791
O 0.788720 0.964350 0.661070 -0.447858
O 0.964350 0.788720 0.661070 -0.447875
O 0.838930 0.788720 0.535650 -0.447689
O 0.035650 0.788720 0.338930 -0.447869
O 0.161070 0.788720 0.464350 -0.447743
O 0.161070 0.964350 0.288720 -0.447850
O 0.035650 0.838930 0.288720 -0.447813
O 0.838930 0.035650 0.288720 -0.447655
O 0.964350 0.161070 0.288720 -0.447679
O 0.161070 0.464350 0.788720 -0.447862
O 0.211280 0.338930 0.964350 -0.447895
O 0.211280 0.464350 0.838930 -0.447747
O 0.035650 0.338930 0.788720 -0.447809
O 0.964350 0.288720 0.161070 -0.447719
O 0.838930 0.288720 0.035650 -0.447875
O 0.035650 0.288720 0.838930 -0.447666
O 0.161070 0.288720 0.964350 -0.447819
O 0.838930 0.535650 0.788720 -0.447820
O 0.964350 0.661070 0.788720 -0.447944
O 0.788720 0.661070 0.964350 -0.447794
O 0.788720 0.535650 0.838930 -0.447699
O 0.788720 0.338930 0.035650 -0.447800
O 0.788720 0.464350 0.161070 -0.447872
O 0.661070 0.464350 0.288720 -0.447823
O 0.711280 0.338930 0.464350 -0.447820
O 0.711280 0.464350 0.338930 -0.447926
O 0.535650 0.338930 0.288720 -0.447884
O 0.464350 0.288720 0.661070 -0.447826
O 0.338930 0.464350 0.711280 -0.447681
O 0.464350 0.338930 0.711280 -0.447705
O 0.338930 0.288720 0.535650 -0.447864
O 0.464350 0.711280 0.338930 -0.447899
O 0.288720 0.661070 0.464350 -0.447691
O 0.288720 0.535650 0.338930 -0.447850
O 0.338930 0.711280 0.464350 -0.447857
O 0.535650 0.288720 0.338930 -0.447819
O 0.661070 0.288720 0.464350 -0.447927
O 0.338930 0.535650 0.288720 -0.447801
O 0.464350 0.661070 0.288720 -0.447854
O 0.288720 0.338930 0.535650 -0.447820
O 0.288720 0.464350 0.661070 -0.447854
O 0.464350 0.211280 0.838930 -0.447746
O 0.338930 0.211280 0.964350 -0.447925
O 0.788720 0.161070 0.535650 -0.447850
O 0.788720 0.035650 0.661070 -0.447691
O 0.161070 0.535650 0.788720 -0.447938
O 0.035650 0.661070 0.788720 -0.447830
O 0.711280 0.838930 0.964350 -0.447722
O 0.711280 0.964350 0.838930 -0.447945
O 0.161070 0.035650 0.288720 -0.447892
O 0.035650 0.161070 0.288720 -0.447868
O 0.035650 0.288720 0.161070 -0.447800
O 0.161070 0.288720 0.035650 -0.447707
Co 0.140550 0.000000 0.640550 1.122237
C 0.215490 0.117320 0.574880 -0.003736
C 0.215490 0.074880 0.617320 -0.003275
Co 0.140550 0.140550 0.500000 1.122239
Co 0.000000 0.640550 0.140550 1.122238
Co 0.140550 0.500000 0.140550 1.122234
Co 0.140550 0.640550 0.000000 1.122236
Co 0.500000 0.640550 0.640550 1.122233
Co 0.640550 0.500000 0.640550 1.122239
Co 0.640550 0.640550 0.500000 1.122237
Co 0.500000 0.859450 0.140550 1.122202
Co 0.140550 0.859450 0.500000 1.122240
Co 0.859450 0.500000 0.140550 1.122241
Co 0.359450 0.500000 0.640550 1.122238
Co 0.500000 0.640550 0.359450 1.122238
Co 0.640550 0.359450 0.500000 1.122241
Co 0.359450 0.000000 0.140550 1.122182
Co 0.640550 0.859450 0.000000 1.122179
Co 0.500000 0.809850 0.190150 1.150234
Co 0.000000 0.859450 0.640550 1.122237
Co 0.140550 0.000000 0.359450 1.122239
Co 0.859450 0.640550 0.000000 1.122239
Co 0.000000 0.640550 0.859450 1.122239
Co 0.500000 0.809850 0.809850 1.151575
Co 0.500000 0.859850 0.859850 1.121749
Co 0.309850 0.000000 0.809850 1.150389
Co 0.309850 0.809850 0.000000 1.150389
Co 0.000000 0.190150 0.690150 1.150387
Co 0.190150 0.000000 0.690150 1.150387
Co 0.190150 0.190150 0.500000 1.150387
Co 0.000000 0.690150 0.190150 1.150387
Co 0.190150 0.500000 0.190150 1.150382
Co 0.190150 0.690150 0.000000 1.150387
Co 0.500000 0.690150 0.690150 1.150383
Co 0.690150 0.500000 0.690150 1.150391
Co 0.690150 0.690150 0.500000 1.150387
C 0.200880 0.910040 0.589960 -0.055640
Co 0.190150 0.809850 0.500000 1.150233
Co 0.809850 0.500000 0.190150 1.150234
Co 0.309850 0.500000 0.690150 1.150310
Co 0.500000 0.690150 0.309850 1.150308
Co 0.690150 0.309850 0.500000 1.150311
Co 0.309850 0.000000 0.190150 1.150312
Co 0.690150 0.809850 0.000000 1.150308
Co 0.000000 0.809850 0.690150 1.150309
Co 0.190150 0.000000 0.309850 1.150310
Co 0.809850 0.690150 0.000000 1.150312
Co 0.000000 0.690150 0.809850 1.150310
C 0.410040 0.799120 0.910040 -0.055214
C 0.410040 0.910040 0.799120 -0.055308
C 0.299120 0.910040 0.910040 -0.055767
C 0.089960 0.200880 0.589960 -0.055720
C 0.089960 0.089960 0.700880 -0.055881
C 0.200880 0.089960 0.589960 -0.055565
C 0.089960 0.700880 0.089960 -0.055702
C 0.089960 0.589960 0.200880 -0.055560
C 0.200880 0.589960 0.089960 -0.055901
C 0.589960 0.700880 0.589960 -0.055903
C 0.589960 0.589960 0.700880 -0.055912
C 0.700880 0.589960 0.589960 -0.055910
C 0.410040 0.799120 0.089960 -0.055836
C 0.410040 0.910040 0.200880 -0.055788
C 0.589960 0.799120 0.910040 -0.055292
C 0.589960 0.910040 0.799120 -0.055488
C 0.410040 0.089960 0.799120 -0.055600
C 0.299120 0.089960 0.910040 -0.055645
C 0.299120 0.910040 0.089960 -0.055694
C 0.089960 0.799120 0.589960 -0.055699
C 0.284510 0.882680 0.074880 -0.003591
C 0.284510 0.925120 0.117320 -0.003139
C 0.074880 0.784510 0.617320 -0.003600
C 0.200880 0.089960 0.410040 -0.055694
C 0.089960 0.200880 0.410040 -0.055840
C 0.910040 0.200880 0.589960 -0.055814
C 0.910040 0.089960 0.700880 -0.055701
C 0.089960 0.910040 0.700880 -0.056095
C 0.910040 0.589960 0.200880 -0.055720
C 0.799120 0.589960 0.089960 -0.055800
C 0.089960 0.700880 0.910040 -0.055827
C 0.910040 0.700880 0.089960 -0.055901
C 0.089960 0.410040 0.200880 -0.055627
C 0.200880 0.410040 0.089960 -0.055895
C 0.200880 0.589960 0.910040 -0.055683
C 0.410040 0.589960 0.700880 -0.055629
C 0.299120 0.589960 0.589960 -0.055623
C 0.589960 0.700880 0.410040 -0.055658
C 0.589960 0.589960 0.299120 -0.056082
C 0.589960 0.299120 0.589960 -0.055630
C 0.700880 0.410040 0.589960 -0.055848
C 0.410040 0.700880 0.589960 -0.055622
C 0.589960 0.410040 0.700880 -0.055675
C 0.700880 0.589960 0.410040 -0.055695
C 0.589960 0.799120 0.089960 -0.055780
C 0.200880 0.910040 0.410040 -0.055897
C 0.910040 0.410040 0.200880 -0.055638
C 0.299120 0.089960 0.089960 -0.055755
C 0.910040 0.910040 0.700880 -0.055612
C 0.910040 0.700880 0.910040 -0.055894
C 0.425120 0.784510 0.882680 -0.004234
C 0.382680 0.925120 0.784510 -0.003859
C 0.284510 0.882680 0.925120 -0.003593
C 0.284510 0.925120 0.882680 -0.003022
C 0.425120 0.882680 0.784510 -0.003663
C 0.382680 0.784510 0.925120 -0.003507
C 0.074880 0.215490 0.617320 -0.003550
C 0.117320 0.074880 0.715490 -0.003453
C 0.129170 0.246500 0.587330 -0.215020
C 0.087330 0.746500 0.129170 -0.213021
C 0.129170 0.587330 0.246500 -0.212871
C 0.246500 0.629170 0.087330 -0.213507
C 0.074880 0.117320 0.715490 -0.002908
C 0.117320 0.215490 0.574880 -0.003100
C 0.074880 0.715490 0.117320 -0.003588
C 0.117320 0.574880 0.215490 -0.003737
C 0.215490 0.617320 0.074880 -0.003334
C 0.215490 0.574880 0.117320 -0.002986
C 0.074880 0.617320 0.215490 -0.003277
C 0.117320 0.715490 0.074880 -0.003134
C 0.574880 0.715490 0.617320 -0.002904
C 0.617320 0.574880 0.715490 -0.003331
C 0.715490 0.617320 0.574880 -0.002874
C 0.715490 0.574880 0.617320 -0.003425
C 0.574880 0.617320 0.715490 -0.003000
C 0.617320 0.715490 0.574880 -0.003452
C 0.425120 0.784510 0.117320 -0.003520
C 0.382680 0.925120 0.215490 -0.003469
C 0.425120 0.882680 0.215490 -0.003137
C 0.382680 0.784510 0.074880 -0.002968
C 0.574880 0.784510 0.882680 -0.004139
C 0.617320 0.784510 0.925120 -0.003471
C 0.617320 0.925120 0.784510 -0.003285
C 0.574880 0.882680 0.784510 -0.003896
C 0.382680 0.074880 0.784510 -0.003710
C 0.425120 0.117320 0.784510 -0.003236
C 0.284510 0.117320 0.925120 -0.003664
C 0.284510 0.074880 0.882680 -0.003202
C 0.253500 0.587330 0.629170 -0.214926
C 0.412670 0.629170 0.746500 -0.214931
C 0.587330 0.746500 0.370830 -0.213029
C 0.629170 0.587330 0.253500 -0.213705
C 0.587330 0.629170 0.253500 -0.215680
C 0.215490 0.882680 0.574880 -0.003669
C 0.215490 0.925120 0.617320 -0.003178
C 0.117320 0.784510 0.574880 -0.003156
C 0.215490 0.117320 0.425120 -0.003121
C 0.215490 0.074880 0.382680 -0.003607
C 0.074880 0.215490 0.382680 -0.003048
C 0.117320 0.215490 0.425120 -0.003390
C 0.925120 0.215490 0.617320 -0.003533
C 0.882680 0.215490 0.574880 -0.002970
C 0.882680 0.074880 0.715490 -0.003609
C 0.925120 0.117320 0.715490 -0.003156
C 0.117320 0.925120 0.715490 -0.003188
C 0.074880 0.882680 0.715490 -0.002733
C 0.882680 0.574880 0.215490 -0.003569
C 0.784510 0.617320 0.074880 -0.003555
C 0.784510 0.574880 0.117320 -0.002989
C 0.925120 0.617320 0.215490 -0.003114
C 0.074880 0.715490 0.882680 -0.003418
C 0.117320 0.715490 0.925120 -0.003080
C 0.925120 0.715490 0.117320 -0.003330
C 0.882680 0.715490 0.074880 -0.002977
C 0.117320 0.425120 0.215490 -0.003198
C 0.074880 0.382680 0.215490 -0.003700
C 0.215490 0.382680 0.074880 -0.003434
C 0.215490 0.425120 0.117320 -0.002919
C 0.215490 0.617320 0.925120 -0.003597
C 0.215490 0.574880 0.882680 -0.003160
C 0.382680 0.574880 0.715490 -0.003638
C 0.284510 0.617320 0.574880 -0.003635
C 0.284510 0.574880 0.617320 -0.003221
C 0.425120 0.617320 0.715490 -0.003215
C 0.574880 0.715490 0.382680 -0.003605
C 0.617320 0.574880 0.284510 -0.003210
C 0.574880 0.617320 0.284510 -0.002767
C 0.617320 0.715490 0.425120 -0.003179
C 0.574880 0.284510 0.617320 -0.003668
C 0.715490 0.382680 0.574880 -0.003366
C 0.715490 0.425120 0.617320 -0.003028
C 0.617320 0.284510 0.574880 -0.003191
C 0.425120 0.715490 0.617320 -0.003653
C 0.382680 0.715490 0.574880 -0.003228
C 0.617320 0.425120 0.715490 -0.003606
C 0.574880 0.382680 0.715490 -0.003168
C 0.715490 0.617320 0.425120 -0.003614
C 0.715490 0.574880 0.382680 -0.003153
C 0.574880 0.784510 0.117320 -0.003456
C 0.617320 0.784510 0.074880 -0.003135
C 0.215490 0.882680 0.425120 -0.003431
C 0.215490 0.925120 0.382680 -0.002877
C 0.882680 0.425120 0.215490 -0.003653
C 0.925120 0.382680 0.215490 -0.003155
C 0.284510 0.117320 0.074880 -0.003046
C 0.284510 0.074880 0.117320 -0.003634
C 0.882680 0.925120 0.715490 -0.003229
C 0.925120 0.882680 0.715490 -0.003678
C 0.925120 0.715490 0.882680 -0.002982
C 0.882680 0.715490 0.925120 -0.003346
C 0.412670 0.753500 0.870830 -0.212570
C 0.370830 0.912670 0.753500 -0.212840
C 0.253500 0.870830 0.912670 -0.213114
C 0.253500 0.912670 0.870830 -0.215313
C 0.412670 0.870830 0.753500 -0.214641
C 0.370830 0.753500 0.912670 -0.214640
C 0.087330 0.246500 0.629170 -0.213107
C 0.129170 0.087330 0.746500 -0.213228
C 0.246500 0.129170 0.587330 -0.212880
C 0.246500 0.087330 0.629170 -0.214845
C 0.087330 0.129170 0.746500 -0.215440
C 0.134770 0.697990 0.046410 0.354841
C 0.546410 0.697990 0.634770 0.354684
C 0.634770 0.546410 0.697990 0.354977
C 0.697990 0.634770 0.546410 0.354689
C 0.697990 0.546410 0.634770 0.355069
C 0.546410 0.634770 0.697990 0.354771
C 0.634770 0.697990 0.546410 0.355065
C 0.453590 0.802010 0.134770 0.355134
C 0.246500 0.587330 0.129170 -0.215241
C 0.087330 0.629170 0.246500 -0.214837
C 0.129170 0.746500 0.087330 -0.215047
C 0.587330 0.746500 0.629170 -0.215465
C 0.629170 0.587330 0.746500 -0.213494
C 0.746500 0.629170 0.587330 -0.215466
C 0.746500 0.587330 0.629170 -0.213310
C 0.587330 0.629170 0.746500 -0.215304
C 0.629170 0.746500 0.587330 -0.213309
C 0.412670 0.753500 0.129170 -0.213187
C 0.370830 0.912670 0.246500 -0.213391
C 0.412670 0.870830 0.246500 -0.215130
C 0.370830 0.753500 0.087330 -0.215401
C 0.587330 0.753500 0.870830 -0.212679
C 0.629170 0.753500 0.912670 -0.214779
C 0.629170 0.912670 0.753500 -0.214964
C 0.587330 0.870830 0.753500 -0.213123
C 0.370830 0.087330 0.753500 -0.212930
C 0.412670 0.129170 0.753500 -0.214940
C 0.253500 0.129170 0.912670 -0.212977
C 0.253500 0.087330 0.870830 -0.214944
C 0.253500 0.870830 0.087330 -0.213081
C 0.253500 0.912670 0.129170 -0.215043
C 0.087330 0.753500 0.629170 -0.213093
C 0.246500 0.870830 0.587330 -0.212962
C 0.246500 0.912670 0.629170 -0.214980
C 0.129170 0.753500 0.587330 -0.215002
C 0.246500 0.129170 0.412670 -0.215035
C 0.246500 0.087330 0.370830 -0.213019
C 0.087330 0.246500 0.370830 -0.215174
C 0.129170 0.246500 0.412670 -0.213439
C 0.912670 0.246500 0.629170 -0.213163
C 0.870830 0.246500 0.587330 -0.215358
C 0.870830 0.087330 0.746500 -0.213084
C 0.912670 0.129170 0.746500 -0.214996
C 0.129170 0.912670 0.746500 -0.213725
C 0.087330 0.870830 0.746500 -0.215690
C 0.870830 0.587330 0.246500 -0.213099
C 0.753500 0.629170 0.087330 -0.213139
C 0.753500 0.587330 0.129170 -0.215334
C 0.912670 0.629170 0.246500 -0.215075
C 0.087330 0.746500 0.870830 -0.213415
C 0.129170 0.746500 0.912670 -0.215158
C 0.912670 0.746500 0.129170 -0.213511
C 0.870830 0.746500 0.087330 -0.215236
C 0.129170 0.412670 0.246500 -0.214957
C 0.087330 0.370830 0.246500 -0.212942
C 0.246500 0.370830 0.087330 -0.213280
C 0.246500 0.412670 0.129170 -0.215461
C 0.246500 0.629170 0.912670 -0.213016
C 0.246500 0.587330 0.870830 -0.214984
C 0.370830 0.587330 0.746500 -0.212944
C 0.253500 0.629170 0.587330 -0.212942
C 0.466000 0.731900 0.256200 -0.041271
C 0.466000 0.756200 0.231900 -0.041093
C 0.256200 0.731900 0.534000 -0.040942
C 0.231900 0.756200 0.534000 -0.041266
C 0.268100 0.534000 0.743800 -0.040940
C 0.243800 0.534000 0.768100 -0.041265
C 0.268100 0.034000 0.243800 -0.040954
C 0.243800 0.034000 0.268100 -0.041340
C 0.743800 0.768100 0.034000 -0.040902
C 0.768100 0.743800 0.034000 -0.041390
C 0.629170 0.746500 0.412670 -0.214957
C 0.587330 0.253500 0.629170 -0.212948
C 0.746500 0.370830 0.587330 -0.213444
C 0.746500 0.412670 0.629170 -0.215188
C 0.629170 0.253500 0.587330 -0.214959
C 0.412670 0.746500 0.629170 -0.212946
C 0.370830 0.746500 0.587330 -0.214922
C 0.629170 0.412670 0.746500 -0.212998
C 0.587330 0.370830 0.746500 -0.214968
C 0.746500 0.629170 0.412670 -0.213023
C 0.746500 0.587330 0.370830 -0.215039
C 0.587330 0.753500 0.129170 -0.213371
C 0.629170 0.753500 0.087330 -0.215118
C 0.246500 0.870830 0.412670 -0.213306
C 0.246500 0.912670 0.370830 -0.215458
C 0.870830 0.412670 0.246500 -0.212966
C 0.912670 0.370830 0.246500 -0.214974
C 0.253500 0.129170 0.087330 -0.215305
C 0.253500 0.087330 0.129170 -0.213107
C 0.870830 0.912670 0.746500 -0.214898
C 0.912670 0.870830 0.746500 -0.212923
C 0.912670 0.746500 0.870830 -0.215231
C 0.870830 0.746500 0.912670 -0.213497
C 0.385640 0.738490 0.885640 0.285631
C 0.385640 0.885640 0.738490 0.285815
C 0.238490 0.885640 0.885640 0.286164
C 0.114360 0.261510 0.614360 0.286113
C 0.114360 0.114360 0.761510 0.286336
C 0.261510 0.114360 0.614360 0.285807
C 0.114360 0.761510 0.114360 0.286047
C 0.114360 0.614360 0.261510 0.285797
C 0.261510 0.614360 0.114360 0.286396
C 0.614360 0.761510 0.614360 0.286338
C 0.614360 0.614360 0.761510 0.286368
C 0.761510 0.614360 0.614360 0.286379
C 0.385640 0.738490 0.114360 0.286286
C 0.385640 0.885640 0.261510 0.286214
C 0.614360 0.738490 0.885640 0.285720
C 0.614360 0.885640 0.738490 0.286102
C 0.385640 0.114360 0.738490 0.285909
C 0.238490 0.114360 0.885640 0.285981
C 0.238490 0.885640 0.114360 0.286067
C 0.114360 0.738490 0.614360 0.286058
C 0.261510 0.885640 0.614360 0.285951
C 0.261510 0.114360 0.385640 0.286044
C 0.114360 0.261510 0.385640 0.286287
C 0.885640 0.261510 0.614360 0.286220
C 0.885640 0.114360 0.761510 0.286032
C 0.114360 0.885640 0.761510 0.286701
C 0.885640 0.614360 0.261510 0.286085
C 0.738490 0.614360 0.114360 0.286178
C 0.114360 0.761510 0.885640 0.286240
C 0.885640 0.761510 0.114360 0.286410
C 0.114360 0.385640 0.261510 0.285893
C 0.261510 0.385640 0.114360 0.286333
C 0.261510 0.614360 0.885640 0.286052
C 0.385640 0.614360 0.761510 0.285952
C 0.238490 0.614360 0.614360 0.285955
C 0.614360 0.761510 0.385640 0.285994
C 0.614360 0.614360 0.238490 0.286660
C 0.614360 0.238490 0.614360 0.285926
C 0.761510 0.385640 0.614360 0.286322
C 0.385640 0.761510 0.614360 0.285937
C 0.614360 0.385640 0.761510 0.286022
C 0.761510 0.614360 0.385640 0.286028
C 0.614360 0.738490 0.114360 0.286211
C 0.261510 0.885640 0.385640 0.286383
C 0.885640 0.385640 0.261510 0.285979
C 0.238490 0.114360 0.114360 0.286130
C 0.885640 0.885640 0.761510 0.285902
C 0.885640 0.761510 0.885640 0.286395
C 0.372700 0.704700 0.872700 -0.762367
C 0.372700 0.872700 0.704700 -0.762641
C 0.204700 0.872700 0.872700 -0.762923
C 0.127300 0.295300 0.627300 -0.762953
C 0.127300 0.127300 0.795300 -0.763171
C 0.295300 0.127300 0.627300 -0.762511
C 0.127300 0.795300 0.127300 -0.762838
C 0.127300 0.627300 0.295300 -0.762486
C 0.295300 0.627300 0.127300 -0.763326
C 0.627300 0.795300 0.627300 -0.763195
C 0.627300 0.627300 0.795300 -0.763267
C 0.795300 0.627300 0.627300 -0.763236
C 0.372700 0.704700 0.127300 -0.763114
C 0.372700 0.872700 0.295300 -0.763087
C 0.627300 0.704700 0.872700 -0.762473
C 0.627300 0.872700 0.704700 -0.763011
C 0.372700 0.127300 0.704700 -0.762655
C 0.204700 0.127300 0.872700 -0.762768
C 0.204700 0.872700 0.127300 -0.762881
C 0.127300 0.704700 0.627300 -0.762898
C 0.295300 0.872700 0.627300 -0.762709
C 0.295300 0.127300 0.372700 -0.762834
C 0.127300 0.295300 0.372700 -0.763167
C 0.872700 0.295300 0.627300 -0.763007
C 0.872700 0.127300 0.795300 -0.762850
C 0.127300 0.872700 0.795300 -0.763663
C 0.872700 0.627300 0.295300 -0.762908
C 0.704700 0.627300 0.127300 -0.762932
C 0.127300 0.795300 0.872700 -0.763097
C 0.872700 0.795300 0.127300 -0.763345
C 0.127300 0.372700 0.295300 -0.762617
C 0.295300 0.372700 0.127300 -0.763167
C 0.295300 0.627300 0.872700 -0.762873
C 0.372700 0.627300 0.795300 -0.762718
C 0.204700 0.627300 0.627300 -0.762723
C 0.627300 0.795300 0.372700 -0.762782
C 0.627300 0.627300 0.204700 -0.763609
C 0.627300 0.204700 0.627300 -0.762655
C 0.795300 0.372700 0.627300 -0.763215
C 0.372700 0.795300 0.627300 -0.762706
C 0.627300 0.372700 0.795300 -0.762812
C 0.795300 0.627300 0.372700 -0.762826
C 0.627300 0.704700 0.127300 -0.763060
C 0.295300 0.872700 0.372700 -0.763247
C 0.872700 0.372700 0.295300 -0.762742
C 0.204700 0.127300 0.127300 -0.762898
C 0.872700 0.872700 0.795300 -0.762635
C 0.872700 0.795300 0.872700 -0.763322
C 0.453590 0.802010 0.865230 0.355901
C 0.365230 0.953590 0.802010 0.355239
C 0.302010 0.865230 0.953590 0.355175
C 0.302010 0.953590 0.865230 0.354733
C 0.453590 0.865230 0.802010 0.355557
C 0.365230 0.802010 0.953590 0.354986
C 0.046410 0.197990 0.634770 0.355125
C 0.134770 0.046410 0.697990 0.355091
C 0.197990 0.134770 0.546410 0.355206
C 0.197990 0.046410 0.634770 0.354928
C 0.046410 0.134770 0.697990 0.354688
C 0.134770 0.197990 0.546410 0.354855
C 0.046410 0.697990 0.134770 0.355140
C 0.134770 0.546410 0.197990 0.355210
C 0.197990 0.634770 0.046410 0.354971
C 0.197990 0.546410 0.134770 0.354794
C 0.046410 0.634770 0.197990 0.354930
H 0.311800 0.109900 0.625500 0.237311
H 0.125500 0.811800 0.109900 0.237454
H 0.109900 0.625500 0.311800 0.237298
H 0.311800 0.609900 0.125500 0.237534
H 0.609900 0.625500 0.811800 0.237597
H 0.811800 0.625500 0.609900 0.237604
H 0.609900 0.811800 0.625500 0.237589
H 0.374500 0.688200 0.109900 0.237507
H 0.390100 0.874500 0.311800 0.237478
H 0.625500 0.688200 0.890100 0.237376
H 0.625500 0.890100 0.688200 0.237458
H 0.390100 0.125500 0.688200 0.237420
H 0.188200 0.109900 0.874500 0.237342
H 0.188200 0.890100 0.125500 0.237515
H 0.125500 0.688200 0.609900 0.237436
H 0.311800 0.890100 0.625500 0.237438
C 0.365230 0.953590 0.197990 0.355012
C 0.453590 0.865230 0.197990 0.354895
C 0.365230 0.802010 0.046410 0.354711
C 0.546410 0.802010 0.865230 0.355842
C 0.634770 0.802010 0.953590 0.354962
C 0.634770 0.953590 0.802010 0.354926
C 0.546410 0.865230 0.802010 0.355671
C 0.365230 0.046410 0.802010 0.355219
C 0.453590 0.134770 0.802010 0.354901
C 0.302010 0.134770 0.953590 0.355164
C 0.302010 0.046410 0.865230 0.354876
C 0.302010 0.865230 0.046410 0.355142
C 0.302010 0.953590 0.134770 0.354878
C 0.046410 0.802010 0.634770 0.355127
C 0.197990 0.865230 0.546410 0.355220
C 0.197990 0.953590 0.634770 0.354858
C 0.134770 0.802010 0.546410 0.354873
C 0.197990 0.134770 0.453590 0.354854
C 0.197990 0.046410 0.365230 0.355148
C 0.046410 0.197990 0.365230 0.354867
C 0.134770 0.197990 0.453590 0.354979
C 0.953590 0.197990 0.634770 0.355147
C 0.865230 0.197990 0.546410 0.354730
C 0.865230 0.046410 0.697990 0.355127
C 0.953590 0.134770 0.697990 0.354850
C 0.134770 0.953590 0.697990 0.354917
C 0.046410 0.865230 0.697990 0.354652
C 0.865230 0.546410 0.197990 0.355149
C 0.802010 0.634770 0.046410 0.355160
C 0.802010 0.546410 0.134770 0.354734
C 0.953590 0.634770 0.197990 0.354835
C 0.046410 0.697990 0.865230 0.354992
C 0.134770 0.697990 0.953590 0.354854
C 0.953590 0.697990 0.134770 0.354969
C 0.865230 0.697990 0.046410 0.354818
C 0.134770 0.453590 0.197990 0.354865
C 0.046410 0.365230 0.197990 0.355207
C 0.197990 0.365230 0.046410 0.355095
C 0.197990 0.453590 0.134770 0.354675
C 0.197990 0.634770 0.953590 0.355143
C 0.197990 0.546410 0.865230 0.354878
C 0.365230 0.546410 0.697990 0.355169
C 0.302010 0.634770 0.546410 0.355171
C 0.302010 0.546410 0.634770 0.354925
C 0.453590 0.634770 0.697990 0.354909
C 0.546410 0.697990 0.365230 0.355151
C 0.634770 0.546410 0.302010 0.354930
C 0.546410 0.634770 0.302010 0.354645
C 0.634770 0.697990 0.453590 0.354910
C 0.546410 0.302010 0.634770 0.355209
C 0.697990 0.365230 0.546410 0.354995
C 0.697990 0.453590 0.634770 0.354857
C 0.634770 0.302010 0.546410 0.354876
C 0.453590 0.697990 0.634770 0.355153
C 0.365230 0.697990 0.546410 0.354927
C 0.634770 0.453590 0.697990 0.355146
C 0.546410 0.365230 0.697990 0.354873
C 0.697990 0.634770 0.453590 0.355131
C 0.697990 0.546410 0.365230 0.354858
C 0.546410 0.802010 0.134770 0.355038
C 0.634770 0.802010 0.046410 0.354894
C 0.197990 0.865230 0.453590 0.355099
C 0.197990 0.953590 0.365230 0.354708
C 0.865230 0.453590 0.197990 0.355221
C 0.953590 0.365230 0.197990 0.354885
C 0.302010 0.134770 0.046410 0.354746
C 0.302010 0.046410 0.134770 0.355183
C 0.865230 0.953590 0.697990 0.354931
C 0.953590 0.865230 0.697990 0.355170
C 0.953590 0.697990 0.865230 0.354811
C 0.865230 0.697990 0.953590 0.354984
C 0.508400 0.714100 0.761600 -0.039173
C 0.508400 0.738400 0.785900 -0.039081
C 0.238400 0.785900 0.008400 -0.039077
C 0.214100 0.761600 0.008400 -0.039180
C 0.285900 0.238400 0.491600 -0.039123
C 0.285900 0.991600 0.738400 -0.039078
C 0.261600 0.214100 0.491600 -0.039134
C 0.261600 0.991600 0.714100 -0.039180
C 0.238400 0.491600 0.285900 -0.039134
C 0.214100 0.491600 0.261600 -0.039122
C 0.991600 0.714100 0.261600 -0.039180
C 0.991600 0.738400 0.285900 -0.039077
C 0.508400 0.761600 0.285900 -0.038447
C 0.508400 0.785900 0.261600 -0.039471
C 0.285900 0.761600 0.491600 -0.039708
C 0.261600 0.785900 0.491600 -0.038838
C 0.238400 0.491600 0.714100 -0.039707
C 0.214100 0.491600 0.738400 -0.038838
C 0.238400 0.991600 0.214100 -0.039967
C 0.214100 0.991600 0.238400 -0.038272
C 0.714100 0.738400 0.991600 -0.040003
C 0.738400 0.714100 0.991600 -0.038235
C 0.008400 0.714100 0.738400 -0.039968
C 0.008400 0.738400 0.714100 -0.038270
C 0.466000 0.743800 0.731900 -0.041132
C 0.466000 0.768100 0.756200 -0.041172
C 0.268100 0.756200 0.966000 -0.041171
C 0.243800 0.731900 0.966000 -0.041135
C 0.256200 0.268100 0.534000 -0.041130
C 0.256200 0.034000 0.768100 -0.041171
C 0.231900 0.243800 0.534000 -0.041181
C 0.231900 0.034000 0.743800 -0.041137
C 0.268100 0.534000 0.256200 -0.041138
C 0.243800 0.534000 0.231900 -0.041170
C 0.034000 0.743800 0.231900 -0.041138
C 0.034000 0.768100 0.256200 -0.041171
O 0.671850 0.621780 0.535710 -0.464217
O 0.671850 0.535710 0.621780 -0.464286
O 0.535710 0.621780 0.671850 -0.464240
O 0.621780 0.671850 0.535710 -0.464289
O 0.464290 0.828150 0.121780 -0.464355
O 0.378220 0.964290 0.171850 -0.464364
O 0.464290 0.878220 0.171850 -0.464302
O 0.378220 0.828150 0.035710 -0.464301
O 0.535710 0.828150 0.878220 -0.464251
O 0.621780 0.828150 0.964290 -0.464423
O 0.621780 0.964290 0.828150 -0.464402
O 0.535710 0.878220 0.828150 -0.464235
O 0.378220 0.035710 0.828150 -0.464369
O 0.464290 0.121780 0.828150 -0.464312
O 0.328150 0.121780 0.964290 -0.464362
O 0.328150 0.035710 0.878220 -0.464304
O 0.328150 0.878220 0.035710 -0.464340
O 0.328150 0.964290 0.121780 -0.464289
O 0.035710 0.828150 0.621780 -0.464307
O 0.171850 0.878220 0.535710 -0.464303
O 0.171850 0.964290 0.621780 -0.464248
C 0.966000 0.743800 0.768100 -0.040955
C 0.966000 0.768100 0.743800 -0.041339
C 0.523600 0.755200 0.721200 -0.030698
C 0.523600 0.778800 0.744800 -0.030775
C 0.278800 0.744800 0.023600 -0.030703
C 0.255200 0.721200 0.023600 -0.030771
C 0.244800 0.278800 0.476400 -0.030712
C 0.244800 0.976400 0.778800 -0.030704
C 0.221200 0.255200 0.476400 -0.030763
C 0.221200 0.976400 0.755200 -0.030771
C 0.278800 0.476400 0.244800 -0.030788
C 0.255200 0.476400 0.221200 -0.030686
C 0.976400 0.755200 0.221200 -0.030770
C 0.976400 0.778800 0.244800 -0.030704
C 0.523600 0.721200 0.244800 -0.031100
C 0.523600 0.744800 0.221200 -0.030565
C 0.244800 0.721200 0.476400 -0.030264
C 0.221200 0.744800 0.476400 -0.030934
C 0.278800 0.476400 0.755200 -0.030264
C 0.255200 0.476400 0.778800 -0.030935
C 0.278800 0.976400 0.255200 -0.030076
C 0.255200 0.976400 0.278800 -0.031369
C 0.755200 0.778800 0.976400 -0.030009
C 0.778800 0.755200 0.976400 -0.031434
C 0.023600 0.755200 0.778800 -0.030077
C 0.023600 0.778800 0.755200 -0.031368
H 0.418500 0.819200 0.918500 0.066748
H 0.418500 0.918500 0.819200 0.066784
H 0.319200 0.918500 0.918500 0.067156
H 0.081500 0.180800 0.581500 0.067215
H 0.081500 0.081500 0.680800 0.067259
H 0.180800 0.081500 0.581500 0.067160
H 0.081500 0.680800 0.081500 0.067203
H 0.081500 0.581500 0.180800 0.067160
H 0.180800 0.581500 0.081500 0.067265
H 0.581500 0.680800 0.581500 0.067263
H 0.581500 0.581500 0.680800 0.067264
H 0.680800 0.581500 0.581500 0.067269
H 0.418500 0.819200 0.081500 0.067193
H 0.418500 0.918500 0.180800 0.067176
H 0.581500 0.819200 0.918500 0.066770
H 0.581500 0.918500 0.819200 0.066834
H 0.418500 0.081500 0.819200 0.067124
H 0.319200 0.081500 0.918500 0.067145
H 0.319200 0.918500 0.081500 0.067169
H 0.081500 0.819200 0.581500 0.067197
H 0.180800 0.918500 0.581500 0.067185
H 0.180800 0.081500 0.418500 0.067204
H 0.081500 0.180800 0.418500 0.067250
H 0.918500 0.180800 0.581500 0.067238
H 0.918500 0.081500 0.680800 0.067195
H 0.081500 0.918500 0.680800 0.067329
H 0.918500 0.581500 0.180800 0.067212
H 0.819200 0.581500 0.081500 0.067231
H 0.081500 0.680800 0.918500 0.067239
H 0.918500 0.680800 0.081500 0.067267
H 0.081500 0.418500 0.180800 0.067179
H 0.180800 0.418500 0.081500 0.067261
H 0.180800 0.581500 0.918500 0.067195
H 0.418500 0.581500 0.680800 0.067183
H 0.319200 0.581500 0.581500 0.067183
H 0.581500 0.680800 0.418500 0.067196
H 0.581500 0.581500 0.319200 0.067320
H 0.581500 0.319200 0.581500 0.067185
H 0.680800 0.418500 0.581500 0.067257
H 0.418500 0.680800 0.581500 0.067180
H 0.581500 0.418500 0.680800 0.067193
H 0.680800 0.581500 0.418500 0.067195
H 0.581500 0.819200 0.081500 0.067179
H 0.180800 0.918500 0.418500 0.067270
H 0.918500 0.418500 0.180800 0.067193
H 0.319200 0.081500 0.081500 0.067146
H 0.918500 0.918500 0.680800 0.067173
H 0.918500 0.680800 0.918500 0.067262
H 0.423000 0.743200 0.852700 0.108193
H 0.352700 0.923000 0.743200 0.108415
H 0.243200 0.852700 0.923000 0.108393
H 0.243200 0.923000 0.852700 0.111046
H 0.423000 0.852700 0.743200 0.110546
H 0.352700 0.743200 0.923000 0.110542
H 0.077000 0.256800 0.647300 0.108507
H 0.147300 0.077000 0.756800 0.108520
H 0.256800 0.147300 0.577000 0.108301
H 0.256800 0.077000 0.647300 0.110528
H 0.077000 0.147300 0.756800 0.111092
H 0.147300 0.256800 0.577000 0.110696
H 0.077000 0.756800 0.147300 0.108454
H 0.147300 0.577000 0.256800 0.108299
H 0.256800 0.647300 0.077000 0.108889
H 0.256800 0.577000 0.147300 0.110746
H 0.077000 0.647300 0.256800 0.110524
H 0.147300 0.756800 0.077000 0.110699
H 0.577000 0.756800 0.647300 0.111099
H 0.647300 0.577000 0.756800 0.108895
H 0.756800 0.647300 0.577000 0.111119
H 0.756800 0.577000 0.647300 0.108563
H 0.577000 0.647300 0.756800 0.110762
H 0.647300 0.756800 0.577000 0.108545
H 0.423000 0.743200 0.147300 0.108499
H 0.352700 0.923000 0.256800 0.108827
H 0.423000 0.852700 0.256800 0.110613
H 0.352700 0.743200 0.077000 0.111074
H 0.577000 0.743200 0.852700 0.108343
H 0.647300 0.743200 0.923000 0.110581
H 0.647300 0.923000 0.743200 0.110667
H 0.577000 0.852700 0.743200 0.108736
H 0.352700 0.077000 0.743200 0.108337
H 0.423000 0.147300 0.743200 0.110659
H 0.243200 0.147300 0.923000 0.108417
H 0.243200 0.077000 0.852700 0.110643
H 0.243200 0.852700 0.077000 0.108492
H 0.243200 0.923000 0.147300 0.110712
H 0.077000 0.743200 0.647300 0.108478
H 0.256800 0.852700 0.577000 0.108347
H 0.256800 0.923000 0.647300 0.110680
H 0.147300 0.743200 0.577000 0.110664
H 0.256800 0.147300 0.423000 0.110714
H 0.256800 0.077000 0.352700 0.108435
H 0.077000 0.256800 0.352700 0.110655
H 0.147300 0.256800 0.423000 0.108853
H 0.923000 0.256800 0.647300 0.108412
H 0.852700 0.256800 0.577000 0.111061
H 0.852700 0.077000 0.756800 0.108470
H 0.923000 0.147300 0.756800 0.110660
H 0.147300 0.923000 0.756800 0.108961
H 0.077000 0.852700 0.756800 0.111191
H 0.852700 0.577000 0.256800 0.108498
H 0.743200 0.647300 0.077000 0.108399
H 0.743200 0.577000 0.147300 0.111047
H 0.923000 0.647300 0.256800 0.110712
H 0.077000 0.756800 0.852700 0.108837
H 0.147300 0.756800 0.923000 0.110627
H 0.923000 0.756800 0.147300 0.108893
H 0.852700 0.756800 0.077000 0.110758
H 0.147300 0.423000 0.256800 0.110668
H 0.077000 0.352700 0.256800 0.108317
H 0.256800 0.352700 0.077000 0.108568
H 0.256800 0.423000 0.147300 0.111079
H 0.256800 0.647300 0.923000 0.108453
H 0.256800 0.577000 0.852700 0.110659
H 0.352700 0.577000 0.756800 0.108431
H 0.243200 0.647300 0.577000 0.108434
H 0.243200 0.577000 0.647300 0.110557
H 0.423000 0.647300 0.756800 0.110560
H 0.577000 0.756800 0.352700 0.108479
H 0.647300 0.577000 0.243200 0.108949
H 0.577000 0.647300 0.243200 0.111165
H 0.647300 0.756800 0.423000 0.110586
H 0.577000 0.243200 0.647300 0.108345
H 0.756800 0.352700 0.577000 0.108873
H 0.756800 0.423000 0.647300 0.110664
H 0.647300 0.243200 0.577000 0.110668
H 0.423000 0.756800 0.647300 0.108417
H 0.352700 0.756800 0.577000 0.110553
H 0.647300 0.423000 0.756800 0.108446
H 0.577000 0.352700 0.756800 0.110650
H 0.756800 0.647300 0.423000 0.108436
H 0.756800 0.577000 0.352700 0.110693
H 0.577000 0.743200 0.147300 0.108837
H 0.647300 0.743200 0.077000 0.110609
H 0.256800 0.852700 0.423000 0.108566
H 0.256800 0.923000 0.352700 0.111118
H 0.852700 0.423000 0.256800 0.108354
H 0.923000 0.352700 0.256800 0.110697
H 0.243200 0.147300 0.077000 0.111039
H 0.243200 0.077000 0.147300 0.108365
H 0.852700 0.923000 0.756800 0.110560
H 0.923000 0.852700 0.756800 0.108398
H 0.923000 0.756800 0.852700 0.110757
H 0.852700 0.756800 0.923000 0.108881
H 0.385800 0.697800 0.853800 0.236704
H 0.353800 0.885800 0.697800 0.236843
H 0.197800 0.853800 0.885800 0.236854
H 0.114200 0.302200 0.646200 0.236932
H 0.146200 0.114200 0.802200 0.236989
H 0.302200 0.146200 0.614200 0.236740
H 0.114200 0.802200 0.146200 0.236895
H 0.146200 0.614200 0.302200 0.236729
H 0.302200 0.646200 0.114200 0.237098
H 0.646200 0.614200 0.802200 0.237078
H 0.802200 0.614200 0.646200 0.237003
H 0.646200 0.802200 0.614200 0.236985
H 0.385800 0.697800 0.146200 0.236970
H 0.353800 0.885800 0.302200 0.237020
H 0.614200 0.697800 0.853800 0.236775
H 0.614200 0.853800 0.697800 0.237005
H 0.353800 0.114200 0.697800 0.236790
H 0.197800 0.146200 0.885800 0.236864
H 0.197800 0.853800 0.114200 0.236905
H 0.114200 0.697800 0.646200 0.236909
H 0.302200 0.853800 0.614200 0.236807
H 0.302200 0.114200 0.353800 0.236889
H 0.146200 0.302200 0.385800 0.237048
H 0.885800 0.302200 0.646200 0.236887
H 0.853800 0.114200 0.802200 0.236886
H 0.146200 0.885800 0.802200 0.237193
H 0.853800 0.614200 0.302200 0.236914
H 0.697800 0.646200 0.114200 0.236854
H 0.114200 0.802200 0.853800 0.237018
H 0.885800 0.802200 0.146200 0.237106
H 0.114200 0.353800 0.302200 0.236763
H 0.302200 0.353800 0.114200 0.236984
H 0.302200 0.646200 0.885800 0.236913
H 0.353800 0.614200 0.802200 0.236866
H 0.197800 0.646200 0.614200 0.236869
H 0.614200 0.802200 0.353800 0.236880
H 0.646200 0.614200 0.197800 0.237172
H 0.614200 0.197800 0.646200 0.236783
H 0.802200 0.353800 0.614200 0.237071
H 0.385800 0.802200 0.646200 0.236861
H 0.646200 0.385800 0.802200 0.236884
H 0.802200 0.646200 0.385800 0.236889
H 0.614200 0.697800 0.146200 0.237011
H 0.302200 0.853800 0.385800 0.237011
H 0.853800 0.385800 0.302200 0.236821
H 0.197800 0.114200 0.146200 0.236842
H 0.885800 0.853800 0.802200 0.236825
H 0.853800 0.802200 0.885800 0.237095
H 0.349700 0.706900 0.866100 0.236506
H 0.366100 0.849700 0.706900 0.236568
H 0.206900 0.866100 0.849700 0.236627
H 0.150300 0.293100 0.633900 0.236650
H 0.133900 0.150300 0.793100 0.236742
H 0.293100 0.133900 0.650300 0.236453
H 0.150300 0.793100 0.133900 0.236569
H 0.133900 0.650300 0.293100 0.236443
H 0.293100 0.633900 0.150300 0.236787
H 0.633900 0.650300 0.793100 0.236652
H 0.793100 0.650300 0.633900 0.236709
H 0.633900 0.793100 0.650300 0.236681
H 0.349700 0.706900 0.133900 0.236722
H 0.366100 0.849700 0.293100 0.236622
H 0.650300 0.706900 0.866100 0.236399
H 0.650300 0.866100 0.706900 0.236687
H 0.366100 0.150300 0.706900 0.236488
H 0.206900 0.133900 0.849700 0.236641
H 0.206900 0.866100 0.150300 0.236539
H 0.150300 0.706900 0.633900 0.236641
H 0.293100 0.866100 0.650300 0.236512
H 0.293100 0.150300 0.366100 0.236563
H 0.133900 0.293100 0.349700 0.236644
H 0.849700 0.293100 0.633900 0.236654
H 0.866100 0.150300 0.793100 0.236615
H 0.133900 0.849700 0.793100 0.236855
H 0.866100 0.650300 0.293100 0.236549
H 0.706900 0.633900 0.150300 0.236624
H 0.150300 0.793100 0.866100 0.236629
H 0.849700 0.793100 0.133900 0.236790
H 0.150300 0.366100 0.293100 0.236450
H 0.293100 0.366100 0.150300 0.236671
H 0.293100 0.633900 0.849700 0.236685
H 0.366100 0.650300 0.793100 0.236564
H 0.206900 0.633900 0.650300 0.236554
H 0.650300 0.793100 0.366100 0.236518
H 0.633900 0.650300 0.206900 0.236834
H 0.650300 0.206900 0.633900 0.236481
H 0.793100 0.366100 0.650300 0.236669
H 0.349700 0.793100 0.633900 0.236550
H 0.633900 0.349700 0.793100 0.236653
H 0.793100 0.633900 0.349700 0.236562
H 0.650300 0.706900 0.133900 0.236613
H 0.293100 0.866100 0.349700 0.236710
H 0.866100 0.349700 0.293100 0.236523
H 0.206900 0.150300 0.133900 0.236609
H 0.849700 0.866100 0.793100 0.236514
H 0.866100 0.793100 0.849700 0.236783
H 0.374500 0.688200 0.890100 0.237249
H 0.390100 0.874500 0.688200 0.237380
H 0.188200 0.890100 0.874500 0.237468
H 0.125500 0.311800 0.609900 0.237478
H 0.109900 0.125500 0.811800 0.237527
H 0.311800 0.125500 0.390100 0.237460
H 0.109900 0.311800 0.374500 0.237519
H 0.874500 0.311800 0.609900 0.237508
H 0.890100 0.125500 0.811800 0.237414
H 0.109900 0.874500 0.811800 0.237706
H 0.890100 0.625500 0.311800 0.237521
H 0.688200 0.609900 0.125500 0.237469
H 0.125500 0.811800 0.890100 0.237468
H 0.874500 0.811800 0.109900 0.237553
H 0.125500 0.390100 0.311800 0.237412
H 0.311800 0.390100 0.125500 0.237571
H 0.311800 0.609900 0.874500 0.237388
H 0.390100 0.625500 0.811800 0.237352
H 0.188200 0.609900 0.625500 0.237368
H 0.625500 0.811800 0.390100 0.237437
H 0.609900 0.625500 0.188200 0.237675
H 0.625500 0.188200 0.609900 0.237418
H 0.811800 0.390100 0.625500 0.237541
H 0.374500 0.811800 0.609900 0.237354
H 0.609900 0.374500 0.811800 0.237363
H 0.811800 0.609900 0.374500 0.237451
H 0.625500 0.688200 0.109900 0.237463
H 0.311800 0.890100 0.374500 0.237617
H 0.890100 0.374500 0.311800 0.237461
H 0.188200 0.125500 0.109900 0.237466
H 0.874500 0.890100 0.811800 0.237328
H 0.890100 0.811800 0.874500 0.237540
H 0.464700 0.756950 0.707350 0.032267
H 0.535300 0.707350 0.756950 0.031317
H 0.535300 0.743050 0.792650 0.031244
H 0.243050 0.792650 0.035300 0.031241
H 0.464700 0.792650 0.743050 0.032360
H 0.292650 0.743050 0.964700 0.032356
H 0.256950 0.707350 0.964700 0.032273
H 0.207350 0.756950 0.035300 0.031338
H 0.243050 0.292650 0.535300 0.032262
H 0.292650 0.243050 0.464700 0.031239
H 0.292650 0.964700 0.743050 0.031246
H 0.243050 0.035300 0.792650 0.032352
H 0.207350 0.035300 0.756950 0.032270
H 0.256950 0.207350 0.464700 0.031334
H 0.256950 0.964700 0.707350 0.031340
H 0.207350 0.256950 0.535300 0.032365
H 0.292650 0.535300 0.243050 0.032273
H 0.243050 0.464700 0.292650 0.031253
H 0.035300 0.756950 0.207350 0.032272
H 0.207350 0.464700 0.256950 0.031318
H 0.256950 0.535300 0.207350 0.032349
H 0.964700 0.707350 0.256950 0.031339
H 0.964700 0.743050 0.292650 0.031243
H 0.035300 0.792650 0.243050 0.032351
H 0.535300 0.756950 0.292650 0.031080
H 0.464700 0.707350 0.243050 0.032316
H 0.464700 0.743050 0.207350 0.032194
H 0.535300 0.792650 0.256950 0.031345
H 0.243050 0.707350 0.535300 0.032237
H 0.292650 0.756950 0.464700 0.031425
H 0.256950 0.792650 0.464700 0.031122
H 0.207350 0.743050 0.535300 0.032318
H 0.292650 0.535300 0.756950 0.032236
H 0.243050 0.464700 0.707350 0.031424
H 0.207350 0.464700 0.743050 0.031124
H 0.256950 0.535300 0.792650 0.032318
H 0.292650 0.035300 0.256950 0.032310
H 0.243050 0.964700 0.207350 0.031488
H 0.207350 0.964700 0.243050 0.031024
H 0.256950 0.035300 0.292650 0.032254
H 0.756950 0.792650 0.035300 0.032207
H 0.707350 0.743050 0.964700 0.031476
H 0.743050 0.707350 0.964700 0.031033
H 0.792650 0.756950 0.035300 0.032351
H 0.964700 0.756950 0.792650 0.032306
H 0.035300 0.707350 0.743050 0.031493
H 0.035300 0.743050 0.707350 0.031027
H 0.964700 0.792650 0.756950 0.032251
H 0.512650 0.766250 0.698150 0.027600
H 0.487350 0.698150 0.766250 0.031725
H 0.487350 0.733750 0.801850 0.031690
H 0.233750 0.801850 0.987350 0.031692
H 0.512650 0.801850 0.733750 0.027580
H 0.301850 0.733750 0.012650 0.027581
H 0.266250 0.698150 0.012650 0.027593
H 0.198150 0.766250 0.987350 0.031725
H 0.233750 0.301850 0.487350 0.027607
H 0.301850 0.233750 0.512650 0.031733
H 0.301850 0.012650 0.733750 0.031698
H 0.233750 0.987350 0.801850 0.027582
H 0.198150 0.987350 0.766250 0.027593
H 0.266250 0.198150 0.512650 0.031695
H 0.266250 0.012650 0.698150 0.031732
H 0.198150 0.266250 0.487350 0.027581
H 0.301850 0.487350 0.233750 0.027601
H 0.233750 0.512650 0.301850 0.031733
H 0.987350 0.766250 0.198150 0.027596
H 0.198150 0.512650 0.266250 0.031692
H 0.266250 0.487350 0.198150 0.027575
H 0.012650 0.698150 0.266250 0.031732
H 0.012650 0.733750 0.301850 0.031695
H 0.987350 0.801850 0.233750 0.027583
H 0.487350 0.766250 0.301850 0.031530
H 0.512650 0.698150 0.233750 0.027615
H 0.512650 0.733750 0.198150 0.027479
H 0.487350 0.801850 0.266250 0.031743
H 0.233750 0.698150 0.487350 0.027485
H 0.301850 0.766250 0.512650 0.031820
H 0.266250 0.801850 0.512650 0.031573
H 0.198150 0.733750 0.487350 0.027581
H 0.301850 0.487350 0.766250 0.027477
H 0.233750 0.512650 0.698150 0.031820
H 0.198150 0.512650 0.733750 0.031575
H 0.266250 0.487350 0.801850 0.027576
H 0.301850 0.987350 0.266250 0.027414
H 0.233750 0.012650 0.198150 0.031858
H 0.198150 0.012650 0.233750 0.031498
H 0.266250 0.987350 0.301850 0.027704
H 0.766250 0.801850 0.987350 0.027432
H 0.698150 0.733750 0.012650 0.031889
H 0.733750 0.698150 0.012650 0.031463
H 0.801850 0.766250 0.987350 0.027676
H 0.012650 0.766250 0.801850 0.027411
H 0.987350 0.698150 0.733750 0.031863
H 0.987350 0.733750 0.698150 0.031500
H 0.012650 0.801850 0.766250 0.027697
H 0.548100 0.741400 0.722950 0.027519
H 0.451900 0.722950 0.741400 0.032718
H 0.451900 0.758600 0.777050 0.032699
H 0.258600 0.777050 0.951900 0.032698
H 0.548100 0.777050 0.758600 0.027574
H 0.277050 0.758600 0.048100 0.027559
H 0.241400 0.722950 0.048100 0.027553
H 0.222950 0.741400 0.951900 0.032713
H 0.258600 0.277050 0.451900 0.027557
H 0.277050 0.258600 0.548100 0.032710
H 0.277050 0.048100 0.758600 0.032700
H 0.258600 0.951900 0.777050 0.027560
H 0.222950 0.951900 0.741400 0.027549
H 0.241400 0.222950 0.548100 0.032698
H 0.241400 0.048100 0.722950 0.032714
H 0.222950 0.241400 0.451900 0.027546
H 0.277050 0.451900 0.258600 0.027579
H 0.258600 0.548100 0.277050 0.032715
H 0.951900 0.741400 0.222950 0.027551
H 0.222950 0.548100 0.241400 0.032697
H 0.241400 0.451900 0.222950 0.027515
H 0.048100 0.722950 0.241400 0.032712
H 0.048100 0.758600 0.277050 0.032695
H 0.951900 0.777050 0.258600 0.027561
H 0.451900 0.741400 0.277050 0.032720
H 0.548100 0.722950 0.258600 0.027628
H 0.548100 0.758600 0.222950 0.027441
H 0.451900 0.777050 0.241400 0.032639
H 0.258600 0.722950 0.451900 0.027399
H 0.277050 0.741400 0.548100 0.032619
H 0.241400 0.777050 0.548100 0.032660
H 0.222950 0.758600 0.451900 0.027546
H 0.277050 0.451900 0.741400 0.027395
H 0.258600 0.548100 0.722950 0.032621
H 0.222950 0.548100 0.758600 0.032664
H 0.241400 0.451900 0.777050 0.027544
H 0.277050 0.951900 0.241400 0.027350
H 0.258600 0.048100 0.222950 0.032587
H 0.222950 0.048100 0.258600 0.032756
H 0.241400 0.951900 0.277050 0.027688
H 0.741400 0.777050 0.951900 0.027327
H 0.722950 0.758600 0.048100 0.032601
H 0.758600 0.722950 0.048100 0.032741
H 0.777050 0.741400 0.951900 0.027708
H 0.048100 0.741400 0.777050 0.027353
H 0.951900 0.722950 0.758600 0.032587
H 0.951900 0.758600 0.722950 0.032754
H 0.048100 0.777050 0.741400 0.027689
N 0.500000 0.728900 0.728900 -0.176552
N 0.500000 0.771100 0.771100 -0.176558
N 0.271100 0.771100 0.000000 -0.176555
N 0.228900 0.728900 0.000000 -0.176538
N 0.271100 0.271100 0.500000 -0.176552
N 0.271100 0.000000 0.771100 -0.176555
N 0.228900 0.000000 0.728900 -0.176538
N 0.228900 0.228900 0.500000 -0.176541
N 0.271100 0.500000 0.271100 -0.176536
N 0.000000 0.728900 0.228900 -0.176537
N 0.228900 0.500000 0.228900 -0.176558
N 0.000000 0.771100 0.271100 -0.176556
N 0.500000 0.729000 0.271100 -0.176187
N 0.500000 0.771000 0.229000 -0.175826
N 0.271000 0.728900 0.500000 -0.176190
N 0.229000 0.771000 0.500000 -0.175836
N 0.271100 0.500000 0.729000 -0.176191
N 0.229000 0.500000 0.771000 -0.175836
N 0.271100 0.000000 0.229000 -0.176200
N 0.228900 0.000000 0.271000 -0.176178
N 0.729000 0.771100 0.000000 -0.176212
N 0.771000 0.728900 0.000000 -0.176168
N 0.000000 0.729000 0.771100 -0.176200
N 0.000000 0.771000 0.728900 -0.176179
O 0.464290 0.828150 0.878220 -0.464258
O 0.378220 0.964290 0.828150 -0.464456
O 0.328150 0.878220 0.964290 -0.464369
O 0.328150 0.964290 0.878220 -0.464314
O 0.464290 0.878220 0.828150 -0.464199
O 0.378220 0.828150 0.964290 -0.464424
O 0.035710 0.171850 0.621780 -0.464289
O 0.121780 0.035710 0.671850 -0.464289
O 0.171850 0.121780 0.535710 -0.464309
O 0.171850 0.035710 0.621780 -0.464252
O 0.035710 0.121780 0.671850 -0.464225
O 0.121780 0.171850 0.535710 -0.464238
O 0.035710 0.671850 0.121780 -0.464300
O 0.121780 0.535710 0.171850 -0.464307
O 0.171850 0.621780 0.035710 -0.464273
O 0.171850 0.535710 0.121780 -0.464237
O 0.035710 0.621780 0.171850 -0.464251
O 0.121780 0.671850 0.035710 -0.464247
O 0.535710 0.671850 0.621780 -0.464222
O 0.621780 0.535710 0.671850 -0.464273
O 0.121780 0.828150 0.535710 -0.464260
O 0.171850 0.121780 0.464290 -0.464236
O 0.171850 0.035710 0.378220 -0.464308
O 0.035710 0.171850 0.378220 -0.464230
O 0.121780 0.171850 0.464290 -0.464279
O 0.964290 0.171850 0.621780 -0.464287
O 0.878220 0.171850 0.535710 -0.464236
O 0.878220 0.035710 0.671850 -0.464309
O 0.964290 0.121780 0.671850 -0.464256
O 0.121780 0.964290 0.671850 -0.464260
O 0.035710 0.878220 0.671850 -0.464207
O 0.878220 0.535710 0.171850 -0.464295
O 0.828150 0.621780 0.035710 -0.464294
O 0.828150 0.535710 0.121780 -0.464240
O 0.964290 0.621780 0.171850 -0.464241
O 0.035710 0.671850 0.878220 -0.464289
O 0.121780 0.671850 0.964290 -0.464239
O 0.964290 0.671850 0.121780 -0.464272
O 0.878220 0.671850 0.035710 -0.464238
O 0.121780 0.464290 0.171850 -0.464245
O 0.035710 0.378220 0.171850 -0.464308
O 0.171850 0.378220 0.035710 -0.464283
O 0.171850 0.464290 0.121780 -0.464230
O 0.171850 0.621780 0.964290 -0.464303
O 0.171850 0.535710 0.878220 -0.464260
O 0.378220 0.535710 0.671850 -0.464305
O 0.328150 0.621780 0.535710 -0.464302
O 0.328150 0.535710 0.621780 -0.464252
O 0.464290 0.621780 0.671850 -0.464247
O 0.535710 0.671850 0.378220 -0.464295
O 0.621780 0.535710 0.328150 -0.464265
O 0.535710 0.621780 0.328150 -0.464219
O 0.621780 0.671850 0.464290 -0.464237
O 0.535710 0.328150 0.621780 -0.464296
O 0.671850 0.378220 0.535710 -0.464273
O 0.671850 0.464290 0.621780 -0.464224
O 0.621780 0.328150 0.535710 -0.464252
O 0.464290 0.671850 0.621780 -0.464308
O 0.378220 0.671850 0.535710 -0.464251
O 0.621780 0.464290 0.671850 -0.464303
O 0.535710 0.378220 0.671850 -0.464260
O 0.671850 0.621780 0.464290 -0.464310
O 0.671850 0.535710 0.378220 -0.464253
O 0.535710 0.828150 0.121780 -0.464341
O 0.621780 0.828150 0.035710 -0.464313
O 0.171850 0.878220 0.464290 -0.464284
O 0.171850 0.964290 0.378220 -0.464216
O 0.878220 0.464290 0.171850 -0.464297
O 0.964290 0.378220 0.171850 -0.464238
O 0.328150 0.121780 0.035710 -0.464317
O 0.328150 0.035710 0.121780 -0.464385
O 0.878220 0.964290 0.671850 -0.464248
O 0.964290 0.878220 0.671850 -0.464319
O 0.964290 0.671850 0.878220 -0.464236
O 0.878220 0.671850 0.964290 -0.464283
O 0.464350 0.788720 0.838930 -0.447397
O 0.338930 0.964350 0.788720 -0.447833
O 0.288720 0.838930 0.964350 -0.447879
O 0.288720 0.964350 0.838930 -0.447692
O 0.464350 0.838930 0.788720 -0.447300
O 0.338930 0.788720 0.964350 -0.447851
O 0.035650 0.211280 0.661070 -0.447797
O 0.161070 0.035650 0.711280 -0.447787
O 0.211280 0.161070 0.535650 -0.447906
O 0.211280 0.035650 0.661070 -0.447891
O 0.035650 0.161070 0.711280 -0.447675
O 0.161070 0.211280 0.535650 -0.447784
O 0.035650 0.711280 0.161070 -0.447799
O 0.161070 0.535650 0.211280 -0.447904
O 0.211280 0.661070 0.035650 -0.447667
O 0.211280 0.535650 0.161070 -0.447794
O 0.035650 0.661070 0.211280 -0.447891
O 0.161070 0.711280 0.035650 -0.447812
O 0.535650 0.711280 0.661070 -0.447678
O 0.661070 0.535650 0.711280 -0.447650
O 0.711280 0.661070 0.535650 -0.447655
O 0.711280 0.535650 0.661070 -0.447789
O 0.535650 0.661070 0.711280 -0.447824
O 0.661070 0.711280 0.535650 -0.447810
O 0.464350 0.788720 0.161070 -0.447861
O 0.338930 0.964350 0.211280 -0.447729
O 0.464350 0.838930 0.211280 -0.447947
O 0.338930 0.788720 0.035650 -0.447687
O 0.535650 0.788720 0.838930 -0.447299
O 0.661070 0.788720 0.964350 -0.447913
O 0.661070 0.964350 0.788720 -0.447835
O 0.535650 0.838930 0.788720 -0.447181
O 0.338930 0.035650 0.788720 -0.447888
O 0.464350 0.161070 0.788720 -0.447887
O 0.288720 0.161070 0.964350 -0.447849
O 0.288720 0.035650 0.838930 -0.447818
O 0.288720 0.838930 0.035650 -0.447806
O 0.288720 0.964350 0.161070 -0.447836
O 0.035650 0.788720 0.661070 -0.447847
O 0.211280 0.838930 0.535650 -0.447942
O 0.211280 0.964350 0.661070 -0.447815
O 0.161070 0.788720 0.535650 -0.447872
O 0.211280 0.161070 0.464350 -0.447791
O 0.211280 0.035650 0.338930 -0.447858
O 0.035650 0.211280 0.338930 -0.447875
O 0.161070 0.211280 0.464350 -0.447689
O 0.964350 0.211280 0.661070 -0.447869
O 0.838930 0.211280 0.535650 -0.447743
O 0.838930 0.035650 0.711280 -0.447850
O 0.964350 0.161070 0.711280 -0.447813
O 0.161070 0.964350 0.711280 -0.447655
O 0.035650 0.838930 0.711280 -0.447679
O 0.838930 0.535650 0.211280 -0.447862
O 0.788720 0.661070 0.035650 -0.447895
O 0.788720 0.535650 0.161070 -0.447747
O 0.964350 0.661070 0.211280 -0.447809
O 0.035650 0.711280 0.838930 -0.447719
O 0.161070 0.711280 0.964350 -0.447875
O 0.964350 0.711280 0.161070 -0.447666
O 0.838930 0.711280 0.035650 -0.447819
O 0.161070 0.464350 0.211280 -0.447820
O 0.035650 0.338930 0.211280 -0.447944
O 0.211280 0.338930 0.035650 -0.447794
O 0.211280 0.464350 0.161070 -0.447699
O 0.211280 0.661070 0.964350 -0.447800
O 0.211280 0.535650 0.838930 -0.447872
O 0.338930 0.535650 0.711280 -0.447823
O 0.288720 0.661070 0.535650 -0.447820
O 0.288720 0.535650 0.661070 -0.447926
O 0.464350 0.661070 0.711280 -0.447884
O 0.535650 0.711280 0.338930 -0.447826
O 0.661070 0.535650 0.288720 -0.447681
O 0.535650 0.661070 0.288720 -0.447705
O 0.661070 0.711280 0.464350 -0.447864
O 0.535650 0.288720 0.661070 -0.447899
O 0.711280 0.338930 0.535650 -0.447691
O 0.711280 0.464350 0.661070 -0.447850
O 0.661070 0.288720 0.535650 -0.447857
O 0.464350 0.711280 0.661070 -0.447819
O 0.338930 0.711280 0.535650 -0.447927
O 0.661070 0.464350 0.711280 -0.447801
O 0.535650 0.338930 0.711280 -0.447854
O 0.711280 0.661070 0.464350 -0.447820
O 0.711280 0.535650 0.338930 -0.447854
O 0.535650 0.788720 0.161070 -0.447746
O 0.661070 0.788720 0.035650 -0.447925
O 0.211280 0.838930 0.464350 -0.447850
O 0.211280 0.964350 0.338930 -0.447691
O 0.838930 0.464350 0.211280 -0.447938
O 0.964350 0.338930 0.211280 -0.447830
O 0.288720 0.161070 0.035650 -0.447722
O 0.288720 0.035650 0.161070 -0.447945
O 0.838930 0.964350 0.711280 -0.447892
O 0.964350 0.838930 0.711280 -0.447868
O 0.964350 0.711280 0.838930 -0.447800
O 0.838930 0.711280 0.964350 -0.447707
