# CIF file generated by openbabel 2.4.1, see http://openbabel.sf.net
data_I
_chemical_name_common 'VESTA_phase_1'
_cell_length_a 39.887
_cell_length_b 39.887
_cell_length_c 39.887
_cell_angle_alpha 90
_cell_angle_beta 90
_cell_angle_gamma 90
_space_group_name_H-M_alt 'P 1'
_space_group_name_Hall 'P 1'
loop_
    _symmetry_equiv_pos_as_xyz
    x,y,z
loop_
    _atom_site_label
    _atom_site_type_symbol
    _atom_site_fract_x
    _atom_site_fract_y
    _atom_site_fract_z
    _atom_site_occupancy
    Co1     Co   0.00000   0.14055   0.64055   1.000
    Co1     Co   0.00000   0.85945   0.35945   1.000
    Co1     Co   0.64055   0.14055   0.00000   1.000
    Co1     Co   0.35945   0.85945   0.00000   1.000
    Co1     Co   0.64055   0.00000   0.14055   1.000
    Co1     Co   0.35945   0.00000   0.85945   1.000
    Co1     Co   0.85945   0.00000   0.35945   1.000
    Co1     Co   0.85945   0.85945   0.50000   1.000
    Co1     Co   0.00000   0.35945   0.85945   1.000
    Co1     Co   0.85945   0.50000   0.85945   1.000
    Co1     Co   0.85945   0.35945   0.00000   1.000
    Co1     Co   0.50000   0.35945   0.35945   1.000
    Co1     Co   0.35945   0.50000   0.35945   1.000
    Co1     Co   0.35945   0.35945   0.50000   1.000
    Co1     Co   0.50000   0.14055   0.85945   1.000
    Co1     Co   0.85945   0.14055   0.50000   1.000
    Co1     Co   0.14055   0.50000   0.85945   1.000
    Co1     Co   0.64055   0.50000   0.35945   1.000
    Co1     Co   0.50000   0.35945   0.64055   1.000
    Co1     Co   0.35945   0.64055   0.50000   1.000
    Co1     Co   0.64055   0.00000   0.85945   1.000
    Co1     Co   0.35945   0.14055   0.00000   1.000
    Co1     Co   0.00000   0.14055   0.35945   1.000
    Co1     Co   0.85945   0.00000   0.64055   1.000
    Co1     Co   0.14055   0.35945   0.00000   1.000
    Co1     Co   0.00000   0.35945   0.14055   1.000
    Co2     Co   0.50000   0.14015   0.14015   1.000
    Co2     Co   0.50000   0.19015   0.19015   1.000
    Co2     Co   0.69015   0.00000   0.19015   1.000
    Co2     Co   0.69015   0.19015   0.00000   1.000
    Co2     Co   0.00000   0.80985   0.30985   1.000
    Co2     Co   0.80985   0.00000   0.30985   1.000
    Co2     Co   0.80985   0.80985   0.50000   1.000
    Co2     Co   0.00000   0.30985   0.80985   1.000
    Co2     Co   0.80985   0.50000   0.80985   1.000
    Co2     Co   0.80985   0.30985   0.00000   1.000
    Co2     Co   0.50000   0.30985   0.30985   1.000
    Co2     Co   0.30985   0.50000   0.30985   1.000
    Co2     Co   0.30985   0.30985   0.50000   1.000
    Co2     Co   0.50000   0.19015   0.80985   1.000
    Co2     Co   0.80985   0.19015   0.50000   1.000
    Co2     Co   0.19015   0.50000   0.80985   1.000
    Co2     Co   0.69015   0.50000   0.30985   1.000
    Co2     Co   0.50000   0.30985   0.69015   1.000
    Co2     Co   0.30985   0.69015   0.50000   1.000
    Co2     Co   0.69015   0.00000   0.80985   1.000
    Co2     Co   0.30985   0.19015   0.00000   1.000
    Co2     Co   0.00000   0.19015   0.30985   1.000
    Co2     Co   0.80985   0.00000   0.69015   1.000
    Co2     Co   0.19015   0.30985   0.00000   1.000
    Co2     Co   0.00000   0.30985   0.19015   1.000
    C1      C    0.58996   0.20088   0.08996   1.000
    C1      C    0.58996   0.08996   0.20088   1.000
    C1      C    0.70088   0.08996   0.08996   1.000
    C1      C    0.91004   0.79912   0.41004   1.000
    C1      C    0.91004   0.91004   0.29912   1.000
    C1      C    0.79912   0.91004   0.41004   1.000
    C1      C    0.91004   0.29912   0.91004   1.000
    C1      C    0.91004   0.41004   0.79912   1.000
    C1      C    0.79912   0.41004   0.91004   1.000
    C1      C    0.41004   0.29912   0.41004   1.000
    C1      C    0.41004   0.41004   0.29912   1.000
    C1      C    0.29912   0.41004   0.41004   1.000
    C1      C    0.58996   0.20088   0.91004   1.000
    C1      C    0.58996   0.08996   0.79912   1.000
    C1      C    0.41004   0.20088   0.08996   1.000
    C1      C    0.41004   0.08996   0.20088   1.000
    C1      C    0.58996   0.91004   0.20088   1.000
    C1      C    0.70088   0.91004   0.08996   1.000
    C1      C    0.70088   0.08996   0.91004   1.000
    C1      C    0.91004   0.20088   0.41004   1.000
    C1      C    0.79912   0.08996   0.41004   1.000
    C1      C    0.79912   0.91004   0.58996   1.000
    C1      C    0.91004   0.79912   0.58996   1.000
    C1      C    0.08996   0.79912   0.41004   1.000
    C1      C    0.08996   0.91004   0.29912   1.000
    C1      C    0.91004   0.08996   0.29912   1.000
    C1      C    0.08996   0.41004   0.79912   1.000
    C1      C    0.20088   0.41004   0.91004   1.000
    C1      C    0.91004   0.29912   0.08996   1.000
    C1      C    0.08996   0.29912   0.91004   1.000
    C1      C    0.91004   0.58996   0.79912   1.000
    C1      C    0.79912   0.58996   0.91004   1.000
    C1      C    0.79912   0.41004   0.08996   1.000
    C1      C    0.58996   0.41004   0.29912   1.000
    C1      C    0.70088   0.41004   0.41004   1.000
    C1      C    0.41004   0.29912   0.58996   1.000
    C1      C    0.41004   0.41004   0.70088   1.000
    C1      C    0.41004   0.70088   0.41004   1.000
    C1      C    0.29912   0.58996   0.41004   1.000
    C1      C    0.58996   0.29912   0.41004   1.000
    C1      C    0.41004   0.58996   0.29912   1.000
    C1      C    0.29912   0.41004   0.58996   1.000
    C1      C    0.41004   0.20088   0.91004   1.000
    C1      C    0.79912   0.08996   0.58996   1.000
    C1      C    0.08996   0.58996   0.79912   1.000
    C1      C    0.70088   0.91004   0.91004   1.000
    C1      C    0.08996   0.08996   0.29912   1.000
    C1      C    0.08996   0.29912   0.08996   1.000
    C2      C    0.57488   0.21549   0.11732   1.000
    C2      C    0.61732   0.07488   0.21549   1.000
    C2      C    0.71549   0.11732   0.07488   1.000
    C2      C    0.71549   0.07488   0.11732   1.000
    C2      C    0.57488   0.11732   0.21549   1.000
    C2      C    0.61732   0.21549   0.07488   1.000
    C2      C    0.92512   0.78451   0.38268   1.000
    C2      C    0.88268   0.92512   0.28451   1.000
    C2      C    0.78451   0.88268   0.42512   1.000
    C2      C    0.78451   0.92512   0.38268   1.000
    C2      C    0.92512   0.88268   0.28451   1.000
    C2      C    0.88268   0.78451   0.42512   1.000
    C2      C    0.92512   0.28451   0.88268   1.000
    C2      C    0.88268   0.42512   0.78451   1.000
    C2      C    0.78451   0.38268   0.92512   1.000
    C2      C    0.78451   0.42512   0.88268   1.000
    C2      C    0.92512   0.38268   0.78451   1.000
    C2      C    0.88268   0.28451   0.92512   1.000
    C2      C    0.42512   0.28451   0.38268   1.000
    C2      C    0.38268   0.42512   0.28451   1.000
    C2      C    0.28451   0.38268   0.42512   1.000
    C2      C    0.28451   0.42512   0.38268   1.000
    C2      C    0.42512   0.38268   0.28451   1.000
    C2      C    0.38268   0.28451   0.42512   1.000
    C2      C    0.57488   0.21549   0.88268   1.000
    C2      C    0.61732   0.07488   0.78451   1.000
    C2      C    0.57488   0.11732   0.78451   1.000
    C2      C    0.61732   0.21549   0.92512   1.000
    C2      C    0.42512   0.21549   0.11732   1.000
    C2      C    0.38268   0.21549   0.07488   1.000
    C2      C    0.38268   0.07488   0.21549   1.000
    C2      C    0.42512   0.11732   0.21549   1.000
    C2      C    0.61732   0.92512   0.21549   1.000
    C2      C    0.57488   0.88268   0.21549   1.000
    C2      C    0.71549   0.88268   0.07488   1.000
    C2      C    0.71549   0.92512   0.11732   1.000
    C2      C    0.71549   0.11732   0.92512   1.000
    C2      C    0.71549   0.07488   0.88268   1.000
    C2      C    0.92512   0.21549   0.38268   1.000
    C2      C    0.78451   0.11732   0.42512   1.000
    C2      C    0.78451   0.07488   0.38268   1.000
    C2      C    0.88268   0.21549   0.42512   1.000
    C2      C    0.78451   0.88268   0.57488   1.000
    C2      C    0.78451   0.92512   0.61732   1.000
    C2      C    0.92512   0.78451   0.61732   1.000
    C2      C    0.88268   0.78451   0.57488   1.000
    C2      C    0.07488   0.78451   0.38268   1.000
    C2      C    0.11732   0.78451   0.42512   1.000
    C2      C    0.11732   0.92512   0.28451   1.000
    C2      C    0.07488   0.88268   0.28451   1.000
    C2      C    0.88268   0.07488   0.28451   1.000
    C2      C    0.92512   0.11732   0.28451   1.000
    C2      C    0.11732   0.42512   0.78451   1.000
    C2      C    0.21549   0.38268   0.92512   1.000
    C2      C    0.21549   0.42512   0.88268   1.000
    C2      C    0.07488   0.38268   0.78451   1.000
    C2      C    0.92512   0.28451   0.11732   1.000
    C2      C    0.88268   0.28451   0.07488   1.000
    C2      C    0.07488   0.28451   0.88268   1.000
    C2      C    0.11732   0.28451   0.92512   1.000
    C2      C    0.88268   0.57488   0.78451   1.000
    C2      C    0.92512   0.61732   0.78451   1.000
    C2      C    0.78451   0.61732   0.92512   1.000
    C2      C    0.78451   0.57488   0.88268   1.000
    C2      C    0.78451   0.38268   0.07488   1.000
    C2      C    0.78451   0.42512   0.11732   1.000
    C2      C    0.61732   0.42512   0.28451   1.000
    C2      C    0.71549   0.38268   0.42512   1.000
    C2      C    0.71549   0.42512   0.38268   1.000
    C2      C    0.57488   0.38268   0.28451   1.000
    C2      C    0.42512   0.28451   0.61732   1.000
    C2      C    0.38268   0.42512   0.71549   1.000
    C2      C    0.42512   0.38268   0.71549   1.000
    C2      C    0.38268   0.28451   0.57488   1.000
    C2      C    0.42512   0.71549   0.38268   1.000
    C2      C    0.28451   0.61732   0.42512   1.000
    C2      C    0.28451   0.57488   0.38268   1.000
    C2      C    0.38268   0.71549   0.42512   1.000
    C2      C    0.57488   0.28451   0.38268   1.000
    C2      C    0.61732   0.28451   0.42512   1.000
    C2      C    0.38268   0.57488   0.28451   1.000
    C2      C    0.42512   0.61732   0.28451   1.000
    C2      C    0.28451   0.38268   0.57488   1.000
    C2      C    0.28451   0.42512   0.61732   1.000
    C2      C    0.42512   0.21549   0.88268   1.000
    C2      C    0.38268   0.21549   0.92512   1.000
    C2      C    0.78451   0.11732   0.57488   1.000
    C2      C    0.78451   0.07488   0.61732   1.000
    C2      C    0.11732   0.57488   0.78451   1.000
    C2      C    0.07488   0.61732   0.78451   1.000
    C2      C    0.71549   0.88268   0.92512   1.000
    C2      C    0.71549   0.92512   0.88268   1.000
    C2      C    0.11732   0.07488   0.28451   1.000
    C2      C    0.07488   0.11732   0.28451   1.000
    C2      C    0.07488   0.28451   0.11732   1.000
    C2      C    0.11732   0.28451   0.07488   1.000
    C3      C    0.58733   0.24650   0.12917   1.000
    C3      C    0.62917   0.08733   0.24650   1.000
    C3      C    0.74650   0.12917   0.08733   1.000
    C3      C    0.74650   0.08733   0.12917   1.000
    C3      C    0.58733   0.12917   0.24650   1.000
    C3      C    0.62917   0.24650   0.08733   1.000
    C3      C    0.91267   0.75350   0.37083   1.000
    C3      C    0.87083   0.91267   0.25350   1.000
    C3      C    0.75350   0.87083   0.41267   1.000
    C3      C    0.75350   0.91267   0.37083   1.000
    C3      C    0.91267   0.87083   0.25350   1.000
    C3      C    0.87083   0.75350   0.41267   1.000
    C3      C    0.91267   0.25350   0.87083   1.000
    C3      C    0.87083   0.41267   0.75350   1.000
    C3      C    0.75350   0.37083   0.91267   1.000
    C3      C    0.75350   0.41267   0.87083   1.000
    C3      C    0.91267   0.37083   0.75350   1.000
    C3      C    0.87083   0.25350   0.91267   1.000
    C3      C    0.41267   0.25350   0.37083   1.000
    C3      C    0.37083   0.41267   0.25350   1.000
    C3      C    0.25350   0.37083   0.41267   1.000
    C3      C    0.25350   0.41267   0.37083   1.000
    C3      C    0.41267   0.37083   0.25350   1.000
    C3      C    0.37083   0.25350   0.41267   1.000
    C3      C    0.58733   0.24650   0.87083   1.000
    C3      C    0.62917   0.08733   0.75350   1.000
    C3      C    0.58733   0.12917   0.75350   1.000
    C3      C    0.62917   0.24650   0.91267   1.000
    C3      C    0.41267   0.24650   0.12917   1.000
    C3      C    0.37083   0.24650   0.08733   1.000
    C3      C    0.37083   0.08733   0.24650   1.000
    C3      C    0.41267   0.12917   0.24650   1.000
    C3      C    0.62917   0.91267   0.24650   1.000
    C3      C    0.58733   0.87083   0.24650   1.000
    C3      C    0.74650   0.87083   0.08733   1.000
    C3      C    0.74650   0.91267   0.12917   1.000
    C3      C    0.74650   0.12917   0.91267   1.000
    C3      C    0.74650   0.08733   0.87083   1.000
    C3      C    0.91267   0.24650   0.37083   1.000
    C3      C    0.75350   0.12917   0.41267   1.000
    C3      C    0.75350   0.08733   0.37083   1.000
    C3      C    0.87083   0.24650   0.41267   1.000
    C3      C    0.75350   0.87083   0.58733   1.000
    C3      C    0.75350   0.91267   0.62917   1.000
    C3      C    0.91267   0.75350   0.62917   1.000
    C3      C    0.87083   0.75350   0.58733   1.000
    C3      C    0.08733   0.75350   0.37083   1.000
    C3      C    0.12917   0.75350   0.41267   1.000
    C3      C    0.12917   0.91267   0.25350   1.000
    C3      C    0.08733   0.87083   0.25350   1.000
    C3      C    0.87083   0.08733   0.25350   1.000
    C3      C    0.91267   0.12917   0.25350   1.000
    C3      C    0.12917   0.41267   0.75350   1.000
    C3      C    0.24650   0.37083   0.91267   1.000
    C3      C    0.24650   0.41267   0.87083   1.000
    C3      C    0.08733   0.37083   0.75350   1.000
    C3      C    0.91267   0.25350   0.12917   1.000
    C3      C    0.87083   0.25350   0.08733   1.000
    C3      C    0.08733   0.25350   0.87083   1.000
    C3      C    0.12917   0.25350   0.91267   1.000
    C3      C    0.87083   0.58733   0.75350   1.000
    C3      C    0.91267   0.62917   0.75350   1.000
    C3      C    0.75350   0.62917   0.91267   1.000
    C3      C    0.75350   0.58733   0.87083   1.000
    C3      C    0.75350   0.37083   0.08733   1.000
    C3      C    0.75350   0.41267   0.12917   1.000
    C3      C    0.62917   0.41267   0.25350   1.000
    C3      C    0.74650   0.37083   0.41267   1.000
    C3      C    0.74650   0.41267   0.37083   1.000
    C3      C    0.58733   0.37083   0.25350   1.000
    C3      C    0.41267   0.25350   0.62917   1.000
    C3      C    0.37083   0.41267   0.74650   1.000
    C3      C    0.41267   0.37083   0.74650   1.000
    C3      C    0.37083   0.25350   0.58733   1.000
    C3      C    0.41267   0.74650   0.37083   1.000
    C3      C    0.25350   0.62917   0.41267   1.000
    C3      C    0.25350   0.58733   0.37083   1.000
    C3      C    0.37083   0.74650   0.41267   1.000
    C3      C    0.58733   0.25350   0.37083   1.000
    C3      C    0.62917   0.25350   0.41267   1.000
    C3      C    0.37083   0.58733   0.25350   1.000
    C3      C    0.41267   0.62917   0.25350   1.000
    C3      C    0.25350   0.37083   0.58733   1.000
    C3      C    0.25350   0.41267   0.62917   1.000
    C3      C    0.41267   0.24650   0.87083   1.000
    C3      C    0.37083   0.24650   0.91267   1.000
    C3      C    0.75350   0.12917   0.58733   1.000
    C3      C    0.75350   0.08733   0.62917   1.000
    C3      C    0.12917   0.58733   0.75350   1.000
    C3      C    0.08733   0.62917   0.75350   1.000
    C3      C    0.74650   0.87083   0.91267   1.000
    C3      C    0.74650   0.91267   0.87083   1.000
    C3      C    0.12917   0.08733   0.25350   1.000
    C3      C    0.08733   0.12917   0.25350   1.000
    C3      C    0.08733   0.25350   0.12917   1.000
    C3      C    0.12917   0.25350   0.08733   1.000
    C4      C    0.61436   0.26151   0.11436   1.000
    C4      C    0.61436   0.11436   0.26151   1.000
    C4      C    0.76151   0.11436   0.11436   1.000
    C4      C    0.88564   0.73849   0.38564   1.000
    C4      C    0.88564   0.88564   0.23849   1.000
    C4      C    0.73849   0.88564   0.38564   1.000
    C4      C    0.88564   0.23849   0.88564   1.000
    C4      C    0.88564   0.38564   0.73849   1.000
    C4      C    0.73849   0.38564   0.88564   1.000
    C4      C    0.38564   0.23849   0.38564   1.000
    C4      C    0.38564   0.38564   0.23849   1.000
    C4      C    0.23849   0.38564   0.38564   1.000
    C4      C    0.61436   0.26151   0.88564   1.000
    C4      C    0.61436   0.11436   0.73849   1.000
    C4      C    0.38564   0.26151   0.11436   1.000
    C4      C    0.38564   0.11436   0.26151   1.000
    C4      C    0.61436   0.88564   0.26151   1.000
    C4      C    0.76151   0.88564   0.11436   1.000
    C4      C    0.76151   0.11436   0.88564   1.000
    C4      C    0.88564   0.26151   0.38564   1.000
    C4      C    0.73849   0.11436   0.38564   1.000
    C4      C    0.73849   0.88564   0.61436   1.000
    C4      C    0.88564   0.73849   0.61436   1.000
    C4      C    0.11436   0.73849   0.38564   1.000
    C4      C    0.11436   0.88564   0.23849   1.000
    C4      C    0.88564   0.11436   0.23849   1.000
    C4      C    0.11436   0.38564   0.73849   1.000
    C4      C    0.26151   0.38564   0.88564   1.000
    C4      C    0.88564   0.23849   0.11436   1.000
    C4      C    0.11436   0.23849   0.88564   1.000
    C4      C    0.88564   0.61436   0.73849   1.000
    C4      C    0.73849   0.61436   0.88564   1.000
    C4      C    0.73849   0.38564   0.11436   1.000
    C4      C    0.61436   0.38564   0.23849   1.000
    C4      C    0.76151   0.38564   0.38564   1.000
    C4      C    0.38564   0.23849   0.61436   1.000
    C4      C    0.38564   0.38564   0.76151   1.000
    C4      C    0.38564   0.76151   0.38564   1.000
    C4      C    0.23849   0.61436   0.38564   1.000
    C4      C    0.61436   0.23849   0.38564   1.000
    C4      C    0.38564   0.61436   0.23849   1.000
    C4      C    0.23849   0.38564   0.61436   1.000
    C4      C    0.38564   0.26151   0.88564   1.000
    C4      C    0.73849   0.11436   0.61436   1.000
    C4      C    0.11436   0.61436   0.73849   1.000
    C4      C    0.76151   0.88564   0.88564   1.000
    C4      C    0.11436   0.11436   0.23849   1.000
    C4      C    0.11436   0.23849   0.11436   1.000
    C5      C    0.62730   0.29530   0.12730   1.000
    C5      C    0.62730   0.12730   0.29530   1.000
    C5      C    0.79530   0.12730   0.12730   1.000
    C5      C    0.87270   0.70470   0.37270   1.000
    C5      C    0.87270   0.87270   0.20470   1.000
    C5      C    0.70470   0.87270   0.37270   1.000
    C5      C    0.87270   0.20470   0.87270   1.000
    C5      C    0.87270   0.37270   0.70470   1.000
    C5      C    0.70470   0.37270   0.87270   1.000
    C5      C    0.37270   0.20470   0.37270   1.000
    C5      C    0.37270   0.37270   0.20470   1.000
    C5      C    0.20470   0.37270   0.37270   1.000
    C5      C    0.62730   0.29530   0.87270   1.000
    C5      C    0.62730   0.12730   0.70470   1.000
    C5      C    0.37270   0.29530   0.12730   1.000
    C5      C    0.37270   0.12730   0.29530   1.000
    C5      C    0.62730   0.87270   0.29530   1.000
    C5      C    0.79530   0.87270   0.12730   1.000
    C5      C    0.79530   0.12730   0.87270   1.000
    C5      C    0.87270   0.29530   0.37270   1.000
    C5      C    0.70470   0.12730   0.37270   1.000
    C5      C    0.70470   0.87270   0.62730   1.000
    C5      C    0.87270   0.70470   0.62730   1.000
    C5      C    0.12730   0.70470   0.37270   1.000
    C5      C    0.12730   0.87270   0.20470   1.000
    C5      C    0.87270   0.12730   0.20470   1.000
    C5      C    0.12730   0.37270   0.70470   1.000
    C5      C    0.29530   0.37270   0.87270   1.000
    C5      C    0.87270   0.20470   0.12730   1.000
    C5      C    0.12730   0.20470   0.87270   1.000
    C5      C    0.87270   0.62730   0.70470   1.000
    C5      C    0.70470   0.62730   0.87270   1.000
    C5      C    0.70470   0.37270   0.12730   1.000
    C5      C    0.62730   0.37270   0.20470   1.000
    C5      C    0.79530   0.37270   0.37270   1.000
    C5      C    0.37270   0.20470   0.62730   1.000
    C5      C    0.37270   0.37270   0.79530   1.000
    C5      C    0.37270   0.79530   0.37270   1.000
    C5      C    0.20470   0.62730   0.37270   1.000
    C5      C    0.62730   0.20470   0.37270   1.000
    C5      C    0.37270   0.62730   0.20470   1.000
    C5      C    0.20470   0.37270   0.62730   1.000
    C5      C    0.37270   0.29530   0.87270   1.000
    C5      C    0.70470   0.12730   0.62730   1.000
    C5      C    0.12730   0.62730   0.70470   1.000
    C5      C    0.79530   0.87270   0.87270   1.000
    C5      C    0.12730   0.12730   0.20470   1.000
    C5      C    0.12730   0.20470   0.12730   1.000
    C6      C    0.54641   0.19799   0.13477   1.000
    C6      C    0.63477   0.04641   0.19799   1.000
    C6      C    0.69799   0.13477   0.04641   1.000
    C6      C    0.69799   0.04641   0.13477   1.000
    C6      C    0.54641   0.13477   0.19799   1.000
    C6      C    0.63477   0.19799   0.04641   1.000
    C6      C    0.95359   0.80201   0.36523   1.000
    C6      C    0.86523   0.95359   0.30201   1.000
    C6      C    0.80201   0.86523   0.45359   1.000
    C6      C    0.80201   0.95359   0.36523   1.000
    C6      C    0.95359   0.86523   0.30201   1.000
    C6      C    0.86523   0.80201   0.45359   1.000
    C6      C    0.95359   0.30201   0.86523   1.000
    C6      C    0.86523   0.45359   0.80201   1.000
    C6      C    0.80201   0.36523   0.95359   1.000
    C6      C    0.80201   0.45359   0.86523   1.000
    C6      C    0.95359   0.36523   0.80201   1.000
    C6      C    0.86523   0.30201   0.95359   1.000
    C6      C    0.45359   0.30201   0.36523   1.000
    C6      C    0.36523   0.45359   0.30201   1.000
    C6      C    0.30201   0.36523   0.45359   1.000
    C6      C    0.30201   0.45359   0.36523   1.000
    C6      C    0.45359   0.36523   0.30201   1.000
    C6      C    0.36523   0.30201   0.45359   1.000
    C6      C    0.54641   0.19799   0.86523   1.000
    C6      C    0.63477   0.04641   0.80201   1.000
    C6      C    0.54641   0.13477   0.80201   1.000
    C6      C    0.63477   0.19799   0.95359   1.000
    C6      C    0.45359   0.19799   0.13477   1.000
    C6      C    0.36523   0.19799   0.04641   1.000
    C6      C    0.36523   0.04641   0.19799   1.000
    C6      C    0.45359   0.13477   0.19799   1.000
    C6      C    0.63477   0.95359   0.19799   1.000
    C6      C    0.54641   0.86523   0.19799   1.000
    C6      C    0.69799   0.86523   0.04641   1.000
    C6      C    0.69799   0.95359   0.13477   1.000
    C6      C    0.69799   0.13477   0.95359   1.000
    C6      C    0.69799   0.04641   0.86523   1.000
    C6      C    0.95359   0.19799   0.36523   1.000
    C6      C    0.80201   0.13477   0.45359   1.000
    C6      C    0.80201   0.04641   0.36523   1.000
    C6      C    0.86523   0.19799   0.45359   1.000
    C6      C    0.80201   0.86523   0.54641   1.000
    C6      C    0.80201   0.95359   0.63477   1.000
    C6      C    0.95359   0.80201   0.63477   1.000
    C6      C    0.86523   0.80201   0.54641   1.000
    C6      C    0.04641   0.80201   0.36523   1.000
    C6      C    0.13477   0.80201   0.45359   1.000
    C6      C    0.13477   0.95359   0.30201   1.000
    C6      C    0.04641   0.86523   0.30201   1.000
    C6      C    0.86523   0.04641   0.30201   1.000
    C6      C    0.95359   0.13477   0.30201   1.000
    C6      C    0.13477   0.45359   0.80201   1.000
    C6      C    0.19799   0.36523   0.95359   1.000
    C6      C    0.19799   0.45359   0.86523   1.000
    C6      C    0.04641   0.36523   0.80201   1.000
    C6      C    0.95359   0.30201   0.13477   1.000
    C6      C    0.86523   0.30201   0.04641   1.000
    C6      C    0.04641   0.30201   0.86523   1.000
    C6      C    0.13477   0.30201   0.95359   1.000
    C6      C    0.86523   0.54641   0.80201   1.000
    C6      C    0.95359   0.63477   0.80201   1.000
    C6      C    0.80201   0.63477   0.95359   1.000
    C6      C    0.80201   0.54641   0.86523   1.000
    C6      C    0.80201   0.36523   0.04641   1.000
    C6      C    0.80201   0.45359   0.13477   1.000
    C6      C    0.63477   0.45359   0.30201   1.000
    C6      C    0.69799   0.36523   0.45359   1.000
    C6      C    0.69799   0.45359   0.36523   1.000
    C6      C    0.54641   0.36523   0.30201   1.000
    C6      C    0.45359   0.30201   0.63477   1.000
    C6      C    0.36523   0.45359   0.69799   1.000
    C6      C    0.45359   0.36523   0.69799   1.000
    C6      C    0.36523   0.30201   0.54641   1.000
    C6      C    0.45359   0.69799   0.36523   1.000
    C6      C    0.30201   0.63477   0.45359   1.000
    C6      C    0.30201   0.54641   0.36523   1.000
    C6      C    0.36523   0.69799   0.45359   1.000
    C6      C    0.54641   0.30201   0.36523   1.000
    C6      C    0.63477   0.30201   0.45359   1.000
    C6      C    0.36523   0.54641   0.30201   1.000
    C6      C    0.45359   0.63477   0.30201   1.000
    C6      C    0.30201   0.36523   0.54641   1.000
    C6      C    0.30201   0.45359   0.63477   1.000
    C6      C    0.45359   0.19799   0.86523   1.000
    C6      C    0.36523   0.19799   0.95359   1.000
    C6      C    0.80201   0.13477   0.54641   1.000
    C6      C    0.80201   0.04641   0.63477   1.000
    C6      C    0.13477   0.54641   0.80201   1.000
    C6      C    0.04641   0.63477   0.80201   1.000
    C6      C    0.69799   0.86523   0.95359   1.000
    C6      C    0.69799   0.95359   0.86523   1.000
    C6      C    0.13477   0.04641   0.30201   1.000
    C6      C    0.04641   0.13477   0.30201   1.000
    C6      C    0.04641   0.30201   0.13477   1.000
    C6      C    0.13477   0.30201   0.04641   1.000
    C7      C    0.49160   0.28590   0.23840   1.000
    C7      C    0.49160   0.26160   0.21410   1.000
    C7      C    0.76160   0.21410   0.99160   1.000
    C7      C    0.78590   0.23840   0.99160   1.000
    C7      C    0.71410   0.76160   0.50840   1.000
    C7      C    0.71410   0.00840   0.26160   1.000
    C7      C    0.73840   0.78590   0.50840   1.000
    C7      C    0.73840   0.00840   0.28590   1.000
    C7      C    0.76160   0.50840   0.71410   1.000
    C7      C    0.78590   0.50840   0.73840   1.000
    C7      C    0.00840   0.28590   0.73840   1.000
    C7      C    0.00840   0.26160   0.71410   1.000
    C7      C    0.49160   0.23840   0.71410   1.000
    C7      C    0.49160   0.21410   0.73840   1.000
    C7      C    0.71410   0.23840   0.50840   1.000
    C7      C    0.73840   0.21410   0.50840   1.000
    C7      C    0.76160   0.50840   0.28590   1.000
    C7      C    0.78590   0.50840   0.26160   1.000
    C7      C    0.76160   0.00840   0.78590   1.000
    C7      C    0.78590   0.00840   0.76160   1.000
    C7      C    0.28590   0.26160   0.00840   1.000
    C7      C    0.26160   0.28590   0.00840   1.000
    C7      C    0.99160   0.28590   0.26160   1.000
    C7      C    0.99160   0.26160   0.28590   1.000
    C9      C    0.53400   0.25620   0.26810   1.000
    C9      C    0.53400   0.23190   0.24380   1.000
    C9      C    0.73190   0.24380   0.03400   1.000
    C9      C    0.75620   0.26810   0.03400   1.000
    C9      C    0.74380   0.73190   0.46600   1.000
    C9      C    0.74380   0.96600   0.23190   1.000
    C9      C    0.76810   0.75620   0.46600   1.000
    C9      C    0.76810   0.96600   0.25620   1.000
    C9      C    0.73190   0.46600   0.74380   1.000
    C9      C    0.75620   0.46600   0.76810   1.000
    C9      C    0.96600   0.25620   0.76810   1.000
    C9      C    0.96600   0.23190   0.74380   1.000
    C9      C    0.53400   0.26810   0.74380   1.000
    C9      C    0.53400   0.24380   0.76810   1.000
    C9      C    0.74380   0.26810   0.46600   1.000
    C9      C    0.76810   0.24380   0.46600   1.000
    C9      C    0.73190   0.46600   0.25620   1.000
    C9      C    0.75620   0.46600   0.23190   1.000
    C9      C    0.73190   0.96600   0.75620   1.000
    C9      C    0.75620   0.96600   0.73190   1.000
    C9      C    0.25620   0.23190   0.96600   1.000
    C9      C    0.23190   0.25620   0.96600   1.000
    C9      C    0.03400   0.25620   0.23190   1.000
    C9      C    0.03400   0.23190   0.25620   1.000
    C11     C    0.47640   0.24480   0.27880   1.000
    C11     C    0.47640   0.22120   0.25520   1.000
    C11     C    0.72120   0.25520   0.97640   1.000
    C11     C    0.74480   0.27880   0.97640   1.000
    C11     C    0.75520   0.72120   0.52360   1.000
    C11     C    0.75520   0.02360   0.22120   1.000
    C11     C    0.77880   0.74480   0.52360   1.000
    C11     C    0.77880   0.02360   0.24480   1.000
    C11     C    0.72120   0.52360   0.75520   1.000
    C11     C    0.74480   0.52360   0.77880   1.000
    C11     C    0.02360   0.24480   0.77880   1.000
    C11     C    0.02360   0.22120   0.75520   1.000
    C11     C    0.47640   0.27880   0.75520   1.000
    C11     C    0.47640   0.25520   0.77880   1.000
    C11     C    0.75520   0.27880   0.52360   1.000
    C11     C    0.77880   0.25520   0.52360   1.000
    C11     C    0.72120   0.52360   0.24480   1.000
    C11     C    0.74480   0.52360   0.22120   1.000
    C11     C    0.72120   0.02360   0.74480   1.000
    C11     C    0.74480   0.02360   0.72120   1.000
    C11     C    0.24480   0.22120   0.02360   1.000
    C11     C    0.22120   0.24480   0.02360   1.000
    C11     C    0.97640   0.24480   0.22120   1.000
    C11     C    0.97640   0.22120   0.24480   1.000
    H1      H    0.58150   0.18080   0.08150   1.000
    H1      H    0.58150   0.08150   0.18080   1.000
    H1      H    0.68080   0.08150   0.08150   1.000
    H1      H    0.91850   0.81920   0.41850   1.000
    H1      H    0.91850   0.91850   0.31920   1.000
    H1      H    0.81920   0.91850   0.41850   1.000
    H1      H    0.91850   0.31920   0.91850   1.000
    H1      H    0.91850   0.41850   0.81920   1.000
    H1      H    0.81920   0.41850   0.91850   1.000
    H1      H    0.41850   0.31920   0.41850   1.000
    H1      H    0.41850   0.41850   0.31920   1.000
    H1      H    0.31920   0.41850   0.41850   1.000
    H1      H    0.58150   0.18080   0.91850   1.000
    H1      H    0.58150   0.08150   0.81920   1.000
    H1      H    0.41850   0.18080   0.08150   1.000
    H1      H    0.41850   0.08150   0.18080   1.000
    H1      H    0.58150   0.91850   0.18080   1.000
    H1      H    0.68080   0.91850   0.08150   1.000
    H1      H    0.68080   0.08150   0.91850   1.000
    H1      H    0.91850   0.18080   0.41850   1.000
    H1      H    0.81920   0.08150   0.41850   1.000
    H1      H    0.81920   0.91850   0.58150   1.000
    H1      H    0.91850   0.81920   0.58150   1.000
    H1      H    0.08150   0.81920   0.41850   1.000
    H1      H    0.08150   0.91850   0.31920   1.000
    H1      H    0.91850   0.08150   0.31920   1.000
    H1      H    0.08150   0.41850   0.81920   1.000
    H1      H    0.18080   0.41850   0.91850   1.000
    H1      H    0.91850   0.31920   0.08150   1.000
    H1      H    0.08150   0.31920   0.91850   1.000
    H1      H    0.91850   0.58150   0.81920   1.000
    H1      H    0.81920   0.58150   0.91850   1.000
    H1      H    0.81920   0.41850   0.08150   1.000
    H1      H    0.58150   0.41850   0.31920   1.000
    H1      H    0.68080   0.41850   0.41850   1.000
    H1      H    0.41850   0.31920   0.58150   1.000
    H1      H    0.41850   0.41850   0.68080   1.000
    H1      H    0.41850   0.68080   0.41850   1.000
    H1      H    0.31920   0.58150   0.41850   1.000
    H1      H    0.58150   0.31920   0.41850   1.000
    H1      H    0.41850   0.58150   0.31920   1.000
    H1      H    0.31920   0.41850   0.58150   1.000
    H1      H    0.41850   0.18080   0.91850   1.000
    H1      H    0.81920   0.08150   0.58150   1.000
    H1      H    0.08150   0.58150   0.81920   1.000
    H1      H    0.68080   0.91850   0.91850   1.000
    H1      H    0.08150   0.08150   0.31920   1.000
    H1      H    0.08150   0.31920   0.08150   1.000
    H3      H    0.57700   0.25680   0.14730   1.000
    H3      H    0.64730   0.07700   0.25680   1.000
    H3      H    0.75680   0.14730   0.07700   1.000
    H3      H    0.75680   0.07700   0.14730   1.000
    H3      H    0.57700   0.14730   0.25680   1.000
    H3      H    0.64730   0.25680   0.07700   1.000
    H3      H    0.92300   0.74320   0.35270   1.000
    H3      H    0.85270   0.92300   0.24320   1.000
    H3      H    0.74320   0.85270   0.42300   1.000
    H3      H    0.74320   0.92300   0.35270   1.000
    H3      H    0.92300   0.85270   0.24320   1.000
    H3      H    0.85270   0.74320   0.42300   1.000
    H3      H    0.92300   0.24320   0.85270   1.000
    H3      H    0.85270   0.42300   0.74320   1.000
    H3      H    0.74320   0.35270   0.92300   1.000
    H3      H    0.74320   0.42300   0.85270   1.000
    H3      H    0.92300   0.35270   0.74320   1.000
    H3      H    0.85270   0.24320   0.92300   1.000
    H3      H    0.42300   0.24320   0.35270   1.000
    H3      H    0.35270   0.42300   0.24320   1.000
    H3      H    0.24320   0.35270   0.42300   1.000
    H3      H    0.24320   0.42300   0.35270   1.000
    H3      H    0.42300   0.35270   0.24320   1.000
    H3      H    0.35270   0.24320   0.42300   1.000
    H3      H    0.57700   0.25680   0.85270   1.000
    H3      H    0.64730   0.07700   0.74320   1.000
    H3      H    0.57700   0.14730   0.74320   1.000
    H3      H    0.64730   0.25680   0.92300   1.000
    H3      H    0.42300   0.25680   0.14730   1.000
    H3      H    0.35270   0.25680   0.07700   1.000
    H3      H    0.35270   0.07700   0.25680   1.000
    H3      H    0.42300   0.14730   0.25680   1.000
    H3      H    0.64730   0.92300   0.25680   1.000
    H3      H    0.57700   0.85270   0.25680   1.000
    H3      H    0.75680   0.85270   0.07700   1.000
    H3      H    0.75680   0.92300   0.14730   1.000
    H3      H    0.75680   0.14730   0.92300   1.000
    H3      H    0.75680   0.07700   0.85270   1.000
    H3      H    0.92300   0.25680   0.35270   1.000
    H3      H    0.74320   0.14730   0.42300   1.000
    H3      H    0.74320   0.07700   0.35270   1.000
    H3      H    0.85270   0.25680   0.42300   1.000
    H3      H    0.74320   0.85270   0.57700   1.000
    H3      H    0.74320   0.92300   0.64730   1.000
    H3      H    0.92300   0.74320   0.64730   1.000
    H3      H    0.85270   0.74320   0.57700   1.000
    H3      H    0.07700   0.74320   0.35270   1.000
    H3      H    0.14730   0.74320   0.42300   1.000
    H3      H    0.14730   0.92300   0.24320   1.000
    H3      H    0.07700   0.85270   0.24320   1.000
    H3      H    0.85270   0.07700   0.24320   1.000
    H3      H    0.92300   0.14730   0.24320   1.000
    H3      H    0.14730   0.42300   0.74320   1.000
    H3      H    0.25680   0.35270   0.92300   1.000
    H3      H    0.25680   0.42300   0.85270   1.000
    H3      H    0.07700   0.35270   0.74320   1.000
    H3      H    0.92300   0.24320   0.14730   1.000
    H3      H    0.85270   0.24320   0.07700   1.000
    H3      H    0.07700   0.24320   0.85270   1.000
    H3      H    0.14730   0.24320   0.92300   1.000
    H3      H    0.85270   0.57700   0.74320   1.000
    H3      H    0.92300   0.64730   0.74320   1.000
    H3      H    0.74320   0.64730   0.92300   1.000
    H3      H    0.74320   0.57700   0.85270   1.000
    H3      H    0.74320   0.35270   0.07700   1.000
    H3      H    0.74320   0.42300   0.14730   1.000
    H3      H    0.64730   0.42300   0.24320   1.000
    H3      H    0.75680   0.35270   0.42300   1.000
    H3      H    0.75680   0.42300   0.35270   1.000
    H3      H    0.57700   0.35270   0.24320   1.000
    H3      H    0.42300   0.24320   0.64730   1.000
    H3      H    0.35270   0.42300   0.75680   1.000
    H3      H    0.42300   0.35270   0.75680   1.000
    H3      H    0.35270   0.24320   0.57700   1.000
    H3      H    0.42300   0.75680   0.35270   1.000
    H3      H    0.24320   0.64730   0.42300   1.000
    H3      H    0.24320   0.57700   0.35270   1.000
    H3      H    0.35270   0.75680   0.42300   1.000
    H3      H    0.57700   0.24320   0.35270   1.000
    H3      H    0.64730   0.24320   0.42300   1.000
    H3      H    0.35270   0.57700   0.24320   1.000
    H3      H    0.42300   0.64730   0.24320   1.000
    H3      H    0.24320   0.35270   0.57700   1.000
    H3      H    0.24320   0.42300   0.64730   1.000
    H3      H    0.42300   0.25680   0.85270   1.000
    H3      H    0.35270   0.25680   0.92300   1.000
    H3      H    0.74320   0.14730   0.57700   1.000
    H3      H    0.74320   0.07700   0.64730   1.000
    H3      H    0.14730   0.57700   0.74320   1.000
    H3      H    0.07700   0.64730   0.74320   1.000
    H3      H    0.75680   0.85270   0.92300   1.000
    H3      H    0.75680   0.92300   0.85270   1.000
    H3      H    0.14730   0.07700   0.24320   1.000
    H3      H    0.07700   0.14730   0.24320   1.000
    H3      H    0.07700   0.24320   0.14730   1.000
    H3      H    0.14730   0.24320   0.07700   1.000
    H5A     H    0.61420   0.30220   0.14620   1.000
    H5A     H    0.64620   0.11420   0.30220   1.000
    H5A     H    0.80220   0.14620   0.11420   1.000
    H5A     H    0.88580   0.69780   0.35380   1.000
    H5A     H    0.85380   0.88580   0.19780   1.000
    H5A     H    0.69780   0.85380   0.38580   1.000
    H5A     H    0.88580   0.19780   0.85380   1.000
    H5A     H    0.85380   0.38580   0.69780   1.000
    H5A     H    0.69780   0.35380   0.88580   1.000
    H5A     H    0.35380   0.38580   0.19780   1.000
    H5A     H    0.19780   0.38580   0.35380   1.000
    H5A     H    0.35380   0.19780   0.38580   1.000
    H5A     H    0.61420   0.30220   0.85380   1.000
    H5A     H    0.64620   0.11420   0.69780   1.000
    H5A     H    0.38580   0.30220   0.14620   1.000
    H5A     H    0.38580   0.14620   0.30220   1.000
    H5A     H    0.64620   0.88580   0.30220   1.000
    H5A     H    0.80220   0.85380   0.11420   1.000
    H5A     H    0.80220   0.14620   0.88580   1.000
    H5A     H    0.88580   0.30220   0.35380   1.000
    H5A     H    0.69780   0.14620   0.38580   1.000
    H5A     H    0.69780   0.88580   0.64620   1.000
    H5A     H    0.85380   0.69780   0.61420   1.000
    H5A     H    0.11420   0.69780   0.35380   1.000
    H5A     H    0.14620   0.88580   0.19780   1.000
    H5A     H    0.85380   0.11420   0.19780   1.000
    H5A     H    0.14620   0.38580   0.69780   1.000
    H5A     H    0.30220   0.35380   0.88580   1.000
    H5A     H    0.88580   0.19780   0.14620   1.000
    H5A     H    0.11420   0.19780   0.85380   1.000
    H5A     H    0.88580   0.64620   0.69780   1.000
    H5A     H    0.69780   0.64620   0.88580   1.000
    H5A     H    0.69780   0.35380   0.11420   1.000
    H5A     H    0.64620   0.38580   0.19780   1.000
    H5A     H    0.80220   0.35380   0.38580   1.000
    H5A     H    0.38580   0.19780   0.64620   1.000
    H5A     H    0.35380   0.38580   0.80220   1.000
    H5A     H    0.38580   0.80220   0.35380   1.000
    H5A     H    0.19780   0.64620   0.38580   1.000
    H5A     H    0.61420   0.19780   0.35380   1.000
    H5A     H    0.35380   0.61420   0.19780   1.000
    H5A     H    0.19780   0.35380   0.61420   1.000
    H5A     H    0.38580   0.30220   0.85380   1.000
    H5A     H    0.69780   0.14620   0.61420   1.000
    H5A     H    0.14620   0.61420   0.69780   1.000
    H5A     H    0.80220   0.88580   0.85380   1.000
    H5A     H    0.11420   0.14620   0.19780   1.000
    H5A     H    0.14620   0.19780   0.11420   1.000
    H5B     H    0.65030   0.29310   0.13390   1.000
    H5B     H    0.63390   0.15030   0.29310   1.000
    H5B     H    0.79310   0.13390   0.15030   1.000
    H5B     H    0.84970   0.70690   0.36610   1.000
    H5B     H    0.86610   0.84970   0.20690   1.000
    H5B     H    0.70690   0.86610   0.34970   1.000
    H5B     H    0.84970   0.20690   0.86610   1.000
    H5B     H    0.86610   0.34970   0.70690   1.000
    H5B     H    0.70690   0.36610   0.84970   1.000
    H5B     H    0.36610   0.34970   0.20690   1.000
    H5B     H    0.20690   0.34970   0.36610   1.000
    H5B     H    0.36610   0.20690   0.34970   1.000
    H5B     H    0.65030   0.29310   0.86610   1.000
    H5B     H    0.63390   0.15030   0.70690   1.000
    H5B     H    0.34970   0.29310   0.13390   1.000
    H5B     H    0.34970   0.13390   0.29310   1.000
    H5B     H    0.63390   0.84970   0.29310   1.000
    H5B     H    0.79310   0.86610   0.15030   1.000
    H5B     H    0.79310   0.13390   0.84970   1.000
    H5B     H    0.84970   0.29310   0.36610   1.000
    H5B     H    0.70690   0.13390   0.34970   1.000
    H5B     H    0.70690   0.84970   0.63390   1.000
    H5B     H    0.86610   0.70690   0.65030   1.000
    H5B     H    0.15030   0.70690   0.36610   1.000
    H5B     H    0.13390   0.84970   0.20690   1.000
    H5B     H    0.86610   0.15030   0.20690   1.000
    H5B     H    0.13390   0.34970   0.70690   1.000
    H5B     H    0.29310   0.36610   0.84970   1.000
    H5B     H    0.84970   0.20690   0.13390   1.000
    H5B     H    0.15030   0.20690   0.86610   1.000
    H5B     H    0.84970   0.63390   0.70690   1.000
    H5B     H    0.70690   0.63390   0.84970   1.000
    H5B     H    0.70690   0.36610   0.15030   1.000
    H5B     H    0.63390   0.34970   0.20690   1.000
    H5B     H    0.79310   0.36610   0.34970   1.000
    H5B     H    0.34970   0.20690   0.63390   1.000
    H5B     H    0.36610   0.34970   0.79310   1.000
    H5B     H    0.34970   0.79310   0.36610   1.000
    H5B     H    0.20690   0.63390   0.34970   1.000
    H5B     H    0.65030   0.20690   0.36610   1.000
    H5B     H    0.36610   0.65030   0.20690   1.000
    H5B     H    0.20690   0.36610   0.65030   1.000
    H5B     H    0.34970   0.29310   0.86610   1.000
    H5B     H    0.70690   0.13390   0.65030   1.000
    H5B     H    0.13390   0.65030   0.70690   1.000
    H5B     H    0.79310   0.84970   0.86610   1.000
    H5B     H    0.15030   0.13390   0.20690   1.000
    H5B     H    0.13390   0.20690   0.15030   1.000
    H5C     H    0.62550   0.31180   0.10990   1.000
    H5C     H    0.60990   0.12550   0.31180   1.000
    H5C     H    0.81180   0.10990   0.12550   1.000
    H5C     H    0.87450   0.68820   0.39010   1.000
    H5C     H    0.89010   0.87450   0.18820   1.000
    H5C     H    0.68820   0.89010   0.37450   1.000
    H5C     H    0.87450   0.18820   0.89010   1.000
    H5C     H    0.89010   0.37450   0.68820   1.000
    H5C     H    0.68820   0.39010   0.87450   1.000
    H5C     H    0.39010   0.37450   0.18820   1.000
    H5C     H    0.18820   0.37450   0.39010   1.000
    H5C     H    0.39010   0.18820   0.37450   1.000
    H5C     H    0.62550   0.31180   0.89010   1.000
    H5C     H    0.60990   0.12550   0.68820   1.000
    H5C     H    0.37450   0.31180   0.10990   1.000
    H5C     H    0.37450   0.10990   0.31180   1.000
    H5C     H    0.60990   0.87450   0.31180   1.000
    H5C     H    0.81180   0.89010   0.12550   1.000
    H5C     H    0.81180   0.10990   0.87450   1.000
    H5C     H    0.87450   0.31180   0.39010   1.000
    H5C     H    0.68820   0.10990   0.37450   1.000
    H5C     H    0.68820   0.87450   0.60990   1.000
    H5C     H    0.89010   0.68820   0.62550   1.000
    H5C     H    0.12550   0.68820   0.39010   1.000
    H5C     H    0.10990   0.87450   0.18820   1.000
    H5C     H    0.89010   0.12550   0.18820   1.000
    H5C     H    0.10990   0.37450   0.68820   1.000
    H5C     H    0.31180   0.39010   0.87450   1.000
    H5C     H    0.87450   0.18820   0.10990   1.000
    H5C     H    0.12550   0.18820   0.89010   1.000
    H5C     H    0.87450   0.60990   0.68820   1.000
    H5C     H    0.68820   0.60990   0.87450   1.000
    H5C     H    0.68820   0.39010   0.12550   1.000
    H5C     H    0.60990   0.37450   0.18820   1.000
    H5C     H    0.81180   0.39010   0.37450   1.000
    H5C     H    0.37450   0.18820   0.60990   1.000
    H5C     H    0.39010   0.37450   0.81180   1.000
    H5C     H    0.37450   0.81180   0.39010   1.000
    H5C     H    0.18820   0.60990   0.37450   1.000
    H5C     H    0.62550   0.18820   0.39010   1.000
    H5C     H    0.39010   0.62550   0.18820   1.000
    H5C     H    0.18820   0.39010   0.62550   1.000
    H5C     H    0.37450   0.31180   0.89010   1.000
    H5C     H    0.68820   0.10990   0.62550   1.000
    H5C     H    0.10990   0.62550   0.68820   1.000
    H5C     H    0.81180   0.87450   0.89010   1.000
    H5C     H    0.12550   0.10990   0.18820   1.000
    H5C     H    0.10990   0.18820   0.12550   1.000
    H7A     H    0.53530   0.24305   0.29265   1.000
    H7A     H    0.46470   0.29265   0.24305   1.000
    H7A     H    0.46470   0.25695   0.20735   1.000
    H7A     H    0.75695   0.20735   0.96470   1.000
    H7A     H    0.53530   0.20735   0.25695   1.000
    H7A     H    0.70735   0.25695   0.03530   1.000
    H7A     H    0.74305   0.29265   0.03530   1.000
    H7A     H    0.79265   0.24305   0.96470   1.000
    H7A     H    0.75695   0.70735   0.46470   1.000
    H7A     H    0.70735   0.75695   0.53530   1.000
    H7A     H    0.70735   0.03530   0.25695   1.000
    H7A     H    0.75695   0.96470   0.20735   1.000
    H7A     H    0.79265   0.96470   0.24305   1.000
    H7A     H    0.74305   0.79265   0.53530   1.000
    H7A     H    0.74305   0.03530   0.29265   1.000
    H7A     H    0.79265   0.74305   0.46470   1.000
    H7A     H    0.70735   0.46470   0.75695   1.000
    H7A     H    0.75695   0.53530   0.70735   1.000
    H7A     H    0.96470   0.24305   0.79265   1.000
    H7A     H    0.79265   0.53530   0.74305   1.000
    H7A     H    0.74305   0.46470   0.79265   1.000
    H7A     H    0.03530   0.29265   0.74305   1.000
    H7A     H    0.03530   0.25695   0.70735   1.000
    H7A     H    0.96470   0.20735   0.75695   1.000
    H7A     H    0.46470   0.24305   0.70735   1.000
    H7A     H    0.53530   0.29265   0.75695   1.000
    H7A     H    0.53530   0.25695   0.79265   1.000
    H7A     H    0.46470   0.20735   0.74305   1.000
    H7A     H    0.75695   0.29265   0.46470   1.000
    H7A     H    0.70735   0.24305   0.53530   1.000
    H7A     H    0.74305   0.20735   0.53530   1.000
    H7A     H    0.79265   0.25695   0.46470   1.000
    H7A     H    0.70735   0.46470   0.24305   1.000
    H7A     H    0.75695   0.53530   0.29265   1.000
    H7A     H    0.79265   0.53530   0.25695   1.000
    H7A     H    0.74305   0.46470   0.20735   1.000
    H7A     H    0.70735   0.96470   0.74305   1.000
    H7A     H    0.75695   0.03530   0.79265   1.000
    H7A     H    0.79265   0.03530   0.75695   1.000
    H7A     H    0.74305   0.96470   0.70735   1.000
    H7A     H    0.24305   0.20735   0.96470   1.000
    H7A     H    0.29265   0.25695   0.03530   1.000
    H7A     H    0.25695   0.29265   0.03530   1.000
    H7A     H    0.20735   0.24305   0.96470   1.000
    H7A     H    0.03530   0.24305   0.20735   1.000
    H7A     H    0.96470   0.29265   0.25695   1.000
    H7A     H    0.96470   0.25695   0.29265   1.000
    H7A     H    0.03530   0.20735   0.24305   1.000
    H7B     H    0.48735   0.23375   0.30185   1.000
    H7B     H    0.51265   0.30185   0.23375   1.000
    H7B     H    0.51265   0.26625   0.19815   1.000
    H7B     H    0.76625   0.19815   0.01265   1.000
    H7B     H    0.48735   0.19815   0.26625   1.000
    H7B     H    0.69815   0.26625   0.98735   1.000
    H7B     H    0.73375   0.30185   0.98735   1.000
    H7B     H    0.80185   0.23375   0.01265   1.000
    H7B     H    0.76625   0.69815   0.51265   1.000
    H7B     H    0.69815   0.76625   0.48735   1.000
    H7B     H    0.69815   0.98735   0.26625   1.000
    H7B     H    0.76625   0.01265   0.19815   1.000
    H7B     H    0.80185   0.01265   0.23375   1.000
    H7B     H    0.73375   0.80185   0.48735   1.000
    H7B     H    0.73375   0.98735   0.30185   1.000
    H7B     H    0.80185   0.73375   0.51265   1.000
    H7B     H    0.69815   0.51265   0.76625   1.000
    H7B     H    0.76625   0.48735   0.69815   1.000
    H7B     H    0.01265   0.23375   0.80185   1.000
    H7B     H    0.80185   0.48735   0.73375   1.000
    H7B     H    0.73375   0.51265   0.80185   1.000
    H7B     H    0.98735   0.30185   0.73375   1.000
    H7B     H    0.98735   0.26625   0.69815   1.000
    H7B     H    0.01265   0.19815   0.76625   1.000
    H7B     H    0.51265   0.23375   0.69815   1.000
    H7B     H    0.48735   0.30185   0.76625   1.000
    H7B     H    0.48735   0.26625   0.80185   1.000
    H7B     H    0.51265   0.19815   0.73375   1.000
    H7B     H    0.76625   0.30185   0.51265   1.000
    H7B     H    0.69815   0.23375   0.48735   1.000
    H7B     H    0.73375   0.19815   0.48735   1.000
    H7B     H    0.80185   0.26625   0.51265   1.000
    H7B     H    0.69815   0.51265   0.23375   1.000
    H7B     H    0.76625   0.48735   0.30185   1.000
    H7B     H    0.80185   0.48735   0.26625   1.000
    H7B     H    0.73375   0.51265   0.19815   1.000
    H7B     H    0.69815   0.01265   0.73375   1.000
    H7B     H    0.76625   0.98735   0.80185   1.000
    H7B     H    0.80185   0.98735   0.76625   1.000
    H7B     H    0.73375   0.01265   0.69815   1.000
    H7B     H    0.23375   0.19815   0.01265   1.000
    H7B     H    0.30185   0.26625   0.98735   1.000
    H7B     H    0.26625   0.30185   0.98735   1.000
    H7B     H    0.19815   0.23375   0.01265   1.000
    H7B     H    0.98735   0.23375   0.19815   1.000
    H7B     H    0.01265   0.30185   0.26625   1.000
    H7B     H    0.01265   0.26625   0.30185   1.000
    H7B     H    0.98735   0.19815   0.23375   1.000
    H9      H    0.45190   0.25860   0.27705   1.000
    H9      H    0.54810   0.27705   0.25860   1.000
    H9      H    0.54810   0.24140   0.22295   1.000
    H9      H    0.74140   0.22295   0.04810   1.000
    H9      H    0.45190   0.22295   0.24140   1.000
    H9      H    0.72295   0.24140   0.95190   1.000
    H9      H    0.75860   0.27705   0.95190   1.000
    H9      H    0.77705   0.25860   0.04810   1.000
    H9      H    0.74140   0.72295   0.54810   1.000
    H9      H    0.72295   0.74140   0.45190   1.000
    H9      H    0.72295   0.95190   0.24140   1.000
    H9      H    0.74140   0.04810   0.22295   1.000
    H9      H    0.77705   0.04810   0.25860   1.000
    H9      H    0.75860   0.77705   0.45190   1.000
    H9      H    0.75860   0.95190   0.27705   1.000
    H9      H    0.77705   0.75860   0.54810   1.000
    H9      H    0.72295   0.54810   0.74140   1.000
    H9      H    0.74140   0.45190   0.72295   1.000
    H9      H    0.04810   0.25860   0.77705   1.000
    H9      H    0.77705   0.45190   0.75860   1.000
    H9      H    0.75860   0.54810   0.77705   1.000
    H9      H    0.95190   0.27705   0.75860   1.000
    H9      H    0.95190   0.24140   0.72295   1.000
    H9      H    0.04810   0.22295   0.74140   1.000
    H9      H    0.54810   0.25860   0.72295   1.000
    H9      H    0.45190   0.27705   0.74140   1.000
    H9      H    0.45190   0.24140   0.77705   1.000
    H9      H    0.54810   0.22295   0.75860   1.000
    H9      H    0.74140   0.27705   0.54810   1.000
    H9      H    0.72295   0.25860   0.45190   1.000
    H9      H    0.75860   0.22295   0.45190   1.000
    H9      H    0.77705   0.24140   0.54810   1.000
    H9      H    0.72295   0.54810   0.25860   1.000
    H9      H    0.74140   0.45190   0.27705   1.000
    H9      H    0.77705   0.45190   0.24140   1.000
    H9      H    0.75860   0.54810   0.22295   1.000
    H9      H    0.72295   0.04810   0.75860   1.000
    H9      H    0.74140   0.95190   0.77705   1.000
    H9      H    0.77705   0.95190   0.74140   1.000
    H9      H    0.75860   0.04810   0.72295   1.000
    H9      H    0.25860   0.22295   0.04810   1.000
    H9      H    0.27705   0.24140   0.95190   1.000
    H9      H    0.24140   0.27705   0.95190   1.000
    H9      H    0.22295   0.25860   0.04810   1.000
    H9      H    0.95190   0.25860   0.22295   1.000
    H9      H    0.04810   0.27705   0.24140   1.000
    H9      H    0.04810   0.24140   0.27705   1.000
    H9      H    0.95190   0.22295   0.25860   1.000
    N1      N    0.50000   0.27110   0.27110   1.000
    N1      N    0.50000   0.22890   0.22890   1.000
    N1      N    0.72890   0.22890   0.00000   1.000
    N1      N    0.77110   0.27110   0.00000   1.000
    N1      N    0.72890   0.72890   0.50000   1.000
    N1      N    0.72890   0.00000   0.22890   1.000
    N1      N    0.77110   0.00000   0.27110   1.000
    N1      N    0.77110   0.77110   0.50000   1.000
    N1      N    0.72890   0.50000   0.72890   1.000
    N1      N    0.00000   0.27110   0.77110   1.000
    N1      N    0.77110   0.50000   0.77110   1.000
    N1      N    0.00000   0.22890   0.72890   1.000
    N1      N    0.50000   0.27100   0.72890   1.000
    N1      N    0.50000   0.22900   0.77100   1.000
    N1      N    0.72900   0.27110   0.50000   1.000
    N1      N    0.77100   0.22900   0.50000   1.000
    N1      N    0.72890   0.50000   0.27100   1.000
    N1      N    0.77100   0.50000   0.22900   1.000
    N1      N    0.72890   0.00000   0.77100   1.000
    N1      N    0.77110   0.00000   0.72900   1.000
    N1      N    0.27100   0.22890   0.00000   1.000
    N1      N    0.22900   0.27110   0.00000   1.000
    N1      N    0.00000   0.27100   0.22890   1.000
    N1      N    0.00000   0.22900   0.27110   1.000
    O1      O    0.53571   0.17185   0.12178   1.000
    O1      O    0.62178   0.03571   0.17185   1.000
    O1      O    0.67185   0.12178   0.03571   1.000
    O1      O    0.67185   0.03571   0.12178   1.000
    O1      O    0.53571   0.12178   0.17185   1.000
    O1      O    0.62178   0.17185   0.03571   1.000
    O1      O    0.96429   0.82815   0.37822   1.000
    O1      O    0.87822   0.96429   0.32815   1.000
    O1      O    0.82815   0.87822   0.46429   1.000
    O1      O    0.82815   0.96429   0.37822   1.000
    O1      O    0.96429   0.87822   0.32815   1.000
    O1      O    0.87822   0.82815   0.46429   1.000
    O1      O    0.96429   0.32815   0.87822   1.000
    O1      O    0.87822   0.46429   0.82815   1.000
    O1      O    0.82815   0.37822   0.96429   1.000
    O1      O    0.82815   0.46429   0.87822   1.000
    O1      O    0.96429   0.37822   0.82815   1.000
    O1      O    0.87822   0.32815   0.96429   1.000
    O1      O    0.46429   0.32815   0.37822   1.000
    O1      O    0.37822   0.46429   0.32815   1.000
    O1      O    0.32815   0.37822   0.46429   1.000
    O1      O    0.32815   0.46429   0.37822   1.000
    O1      O    0.46429   0.37822   0.32815   1.000
    O1      O    0.37822   0.32815   0.46429   1.000
    O1      O    0.53571   0.17185   0.87822   1.000
    O1      O    0.62178   0.03571   0.82815   1.000
    O1      O    0.53571   0.12178   0.82815   1.000
    O1      O    0.62178   0.17185   0.96429   1.000
    O1      O    0.46429   0.17185   0.12178   1.000
    O1      O    0.37822   0.17185   0.03571   1.000
    O1      O    0.37822   0.03571   0.17185   1.000
    O1      O    0.46429   0.12178   0.17185   1.000
    O1      O    0.62178   0.96429   0.17185   1.000
    O1      O    0.53571   0.87822   0.17185   1.000
    O1      O    0.67185   0.87822   0.03571   1.000
    O1      O    0.67185   0.96429   0.12178   1.000
    O1      O    0.67185   0.12178   0.96429   1.000
    O1      O    0.67185   0.03571   0.87822   1.000
    O1      O    0.96429   0.17185   0.37822   1.000
    O1      O    0.82815   0.12178   0.46429   1.000
    O1      O    0.82815   0.03571   0.37822   1.000
    O1      O    0.87822   0.17185   0.46429   1.000
    O1      O    0.82815   0.87822   0.53571   1.000
    O1      O    0.82815   0.96429   0.62178   1.000
    O1      O    0.96429   0.82815   0.62178   1.000
    O1      O    0.87822   0.82815   0.53571   1.000
    O1      O    0.03571   0.82815   0.37822   1.000
    O1      O    0.12178   0.82815   0.46429   1.000
    O1      O    0.12178   0.96429   0.32815   1.000
    O1      O    0.03571   0.87822   0.32815   1.000
    O1      O    0.87822   0.03571   0.32815   1.000
    O1      O    0.96429   0.12178   0.32815   1.000
    O1      O    0.12178   0.46429   0.82815   1.000
    O1      O    0.17185   0.37822   0.96429   1.000
    O1      O    0.17185   0.46429   0.87822   1.000
    O1      O    0.03571   0.37822   0.82815   1.000
    O1      O    0.96429   0.32815   0.12178   1.000
    O1      O    0.87822   0.32815   0.03571   1.000
    O1      O    0.03571   0.32815   0.87822   1.000
    O1      O    0.12178   0.32815   0.96429   1.000
    O1      O    0.87822   0.53571   0.82815   1.000
    O1      O    0.96429   0.62178   0.82815   1.000
    O1      O    0.82815   0.62178   0.96429   1.000
    O1      O    0.82815   0.53571   0.87822   1.000
    O1      O    0.82815   0.37822   0.03571   1.000
    O1      O    0.82815   0.46429   0.12178   1.000
    O1      O    0.62178   0.46429   0.32815   1.000
    O1      O    0.67185   0.37822   0.46429   1.000
    O1      O    0.67185   0.46429   0.37822   1.000
    O1      O    0.53571   0.37822   0.32815   1.000
    O1      O    0.46429   0.32815   0.62178   1.000
    O1      O    0.37822   0.46429   0.67185   1.000
    O1      O    0.46429   0.37822   0.67185   1.000
    O1      O    0.37822   0.32815   0.53571   1.000
    O1      O    0.46429   0.67185   0.37822   1.000
    O1      O    0.32815   0.62178   0.46429   1.000
    O1      O    0.32815   0.53571   0.37822   1.000
    O1      O    0.37822   0.67185   0.46429   1.000
    O1      O    0.53571   0.32815   0.37822   1.000
    O1      O    0.62178   0.32815   0.46429   1.000
    O1      O    0.37822   0.53571   0.32815   1.000
    O1      O    0.46429   0.62178   0.32815   1.000
    O1      O    0.32815   0.37822   0.53571   1.000
    O1      O    0.32815   0.46429   0.62178   1.000
    O1      O    0.46429   0.17185   0.87822   1.000
    O1      O    0.37822   0.17185   0.96429   1.000
    O1      O    0.82815   0.12178   0.53571   1.000
    O1      O    0.82815   0.03571   0.62178   1.000
    O1      O    0.12178   0.53571   0.82815   1.000
    O1      O    0.03571   0.62178   0.82815   1.000
    O1      O    0.67185   0.87822   0.96429   1.000
    O1      O    0.67185   0.96429   0.87822   1.000
    O1      O    0.12178   0.03571   0.32815   1.000
    O1      O    0.03571   0.12178   0.32815   1.000
    O1      O    0.03571   0.32815   0.12178   1.000
    O1      O    0.12178   0.32815   0.03571   1.000
    O2      O    0.53565   0.21128   0.16107   1.000
    O2      O    0.66107   0.03565   0.21128   1.000
    O2      O    0.71128   0.16107   0.03565   1.000
    O2      O    0.71128   0.03565   0.16107   1.000
    O2      O    0.53565   0.16107   0.21128   1.000
    O2      O    0.66107   0.21128   0.03565   1.000
    O2      O    0.96435   0.78872   0.33893   1.000
    O2      O    0.83893   0.96435   0.28872   1.000
    O2      O    0.78872   0.83893   0.46435   1.000
    O2      O    0.78872   0.96435   0.33893   1.000
    O2      O    0.96435   0.83893   0.28872   1.000
    O2      O    0.83893   0.78872   0.46435   1.000
    O2      O    0.96435   0.28872   0.83893   1.000
    O2      O    0.83893   0.46435   0.78872   1.000
    O2      O    0.78872   0.33893   0.96435   1.000
    O2      O    0.78872   0.46435   0.83893   1.000
    O2      O    0.96435   0.33893   0.78872   1.000
    O2      O    0.83893   0.28872   0.96435   1.000
    O2      O    0.46435   0.28872   0.33893   1.000
    O2      O    0.33893   0.46435   0.28872   1.000
    O2      O    0.28872   0.33893   0.46435   1.000
    O2      O    0.28872   0.46435   0.33893   1.000
    O2      O    0.46435   0.33893   0.28872   1.000
    O2      O    0.33893   0.28872   0.46435   1.000
    O2      O    0.53565   0.21128   0.83893   1.000
    O2      O    0.66107   0.03565   0.78872   1.000
    O2      O    0.53565   0.16107   0.78872   1.000
    O2      O    0.66107   0.21128   0.96435   1.000
    O2      O    0.46435   0.21128   0.16107   1.000
    O2      O    0.33893   0.21128   0.03565   1.000
    O2      O    0.33893   0.03565   0.21128   1.000
    O2      O    0.46435   0.16107   0.21128   1.000
    O2      O    0.66107   0.96435   0.21128   1.000
    O2      O    0.53565   0.83893   0.21128   1.000
    O2      O    0.71128   0.83893   0.03565   1.000
    O2      O    0.71128   0.96435   0.16107   1.000
    O2      O    0.71128   0.16107   0.96435   1.000
    O2      O    0.71128   0.03565   0.83893   1.000
    O2      O    0.96435   0.21128   0.33893   1.000
    O2      O    0.78872   0.16107   0.46435   1.000
    O2      O    0.78872   0.03565   0.33893   1.000
    O2      O    0.83893   0.21128   0.46435   1.000
    O2      O    0.78872   0.83893   0.53565   1.000
    O2      O    0.78872   0.96435   0.66107   1.000
    O2      O    0.96435   0.78872   0.66107   1.000
    O2      O    0.83893   0.78872   0.53565   1.000
    O2      O    0.03565   0.78872   0.33893   1.000
    O2      O    0.16107   0.78872   0.46435   1.000
    O2      O    0.16107   0.96435   0.28872   1.000
    O2      O    0.03565   0.83893   0.28872   1.000
    O2      O    0.83893   0.03565   0.28872   1.000
    O2      O    0.96435   0.16107   0.28872   1.000
    O2      O    0.16107   0.46435   0.78872   1.000
    O2      O    0.21128   0.33893   0.96435   1.000
    O2      O    0.21128   0.46435   0.83893   1.000
    O2      O    0.03565   0.33893   0.78872   1.000
    O2      O    0.96435   0.28872   0.16107   1.000
    O2      O    0.83893   0.28872   0.03565   1.000
    O2      O    0.03565   0.28872   0.83893   1.000
    O2      O    0.16107   0.28872   0.96435   1.000
    O2      O    0.83893   0.53565   0.78872   1.000
    O2      O    0.96435   0.66107   0.78872   1.000
    O2      O    0.78872   0.66107   0.96435   1.000
    O2      O    0.78872   0.53565   0.83893   1.000
    O2      O    0.78872   0.33893   0.03565   1.000
    O2      O    0.78872   0.46435   0.16107   1.000
    O2      O    0.66107   0.46435   0.28872   1.000
    O2      O    0.71128   0.33893   0.46435   1.000
    O2      O    0.71128   0.46435   0.33893   1.000
    O2      O    0.53565   0.33893   0.28872   1.000
    O2      O    0.46435   0.28872   0.66107   1.000
    O2      O    0.33893   0.46435   0.71128   1.000
    O2      O    0.46435   0.33893   0.71128   1.000
    O2      O    0.33893   0.28872   0.53565   1.000
    O2      O    0.46435   0.71128   0.33893   1.000
    O2      O    0.28872   0.66107   0.46435   1.000
    O2      O    0.28872   0.53565   0.33893   1.000
    O2      O    0.33893   0.71128   0.46435   1.000
    O2      O    0.53565   0.28872   0.33893   1.000
    O2      O    0.66107   0.28872   0.46435   1.000
    O2      O    0.33893   0.53565   0.28872   1.000
    O2      O    0.46435   0.66107   0.28872   1.000
    O2      O    0.28872   0.33893   0.53565   1.000
    O2      O    0.28872   0.46435   0.66107   1.000
    O2      O    0.46435   0.21128   0.83893   1.000
    O2      O    0.33893   0.21128   0.96435   1.000
    O2      O    0.78872   0.16107   0.53565   1.000
    O2      O    0.78872   0.03565   0.66107   1.000
    O2      O    0.16107   0.53565   0.78872   1.000
    O2      O    0.03565   0.66107   0.78872   1.000
    O2      O    0.71128   0.83893   0.96435   1.000
    O2      O    0.71128   0.96435   0.83893   1.000
    O2      O    0.16107   0.03565   0.28872   1.000
    O2      O    0.03565   0.16107   0.28872   1.000
    O2      O    0.03565   0.28872   0.16107   1.000
    O2      O    0.16107   0.28872   0.03565   1.000
    Co1     Co   0.14055   0.00000   0.64055   1.000
    C2      C    0.21549   0.11732   0.57488   1.000
    C2      C    0.21549   0.07488   0.61732   1.000
    Co1     Co   0.14055   0.14055   0.50000   1.000
    Co1     Co   0.00000   0.64055   0.14055   1.000
    Co1     Co   0.14055   0.50000   0.14055   1.000
    Co1     Co   0.14055   0.64055   0.00000   1.000
    Co1     Co   0.50000   0.64055   0.64055   1.000
    Co1     Co   0.64055   0.50000   0.64055   1.000
    Co1     Co   0.64055   0.64055   0.50000   1.000
    Co1     Co   0.50000   0.85945   0.14055   1.000
    Co1     Co   0.14055   0.85945   0.50000   1.000
    Co1     Co   0.85945   0.50000   0.14055   1.000
    Co1     Co   0.35945   0.50000   0.64055   1.000
    Co1     Co   0.50000   0.64055   0.35945   1.000
    Co1     Co   0.64055   0.35945   0.50000   1.000
    Co1     Co   0.35945   0.00000   0.14055   1.000
    Co1     Co   0.64055   0.85945   0.00000   1.000
    Co2     Co   0.50000   0.80985   0.19015   1.000
    Co1     Co   0.00000   0.85945   0.64055   1.000
    Co1     Co   0.14055   0.00000   0.35945   1.000
    Co1     Co   0.85945   0.64055   0.00000   1.000
    Co1     Co   0.00000   0.64055   0.85945   1.000
    Co2     Co   0.50000   0.80985   0.80985   1.000
    Co2     Co   0.50000   0.85985   0.85985   1.000
    Co2     Co   0.30985   0.00000   0.80985   1.000
    Co2     Co   0.30985   0.80985   0.00000   1.000
    Co2     Co   0.00000   0.19015   0.69015   1.000
    Co2     Co   0.19015   0.00000   0.69015   1.000
    Co2     Co   0.19015   0.19015   0.50000   1.000
    Co2     Co   0.00000   0.69015   0.19015   1.000
    Co2     Co   0.19015   0.50000   0.19015   1.000
    Co2     Co   0.19015   0.69015   0.00000   1.000
    Co2     Co   0.50000   0.69015   0.69015   1.000
    Co2     Co   0.69015   0.50000   0.69015   1.000
    Co2     Co   0.69015   0.69015   0.50000   1.000
    C1      C    0.20088   0.91004   0.58996   1.000
    Co2     Co   0.19015   0.80985   0.50000   1.000
    Co2     Co   0.80985   0.50000   0.19015   1.000
    Co2     Co   0.30985   0.50000   0.69015   1.000
    Co2     Co   0.50000   0.69015   0.30985   1.000
    Co2     Co   0.69015   0.30985   0.50000   1.000
    Co2     Co   0.30985   0.00000   0.19015   1.000
    Co2     Co   0.69015   0.80985   0.00000   1.000
    Co2     Co   0.00000   0.80985   0.69015   1.000
    Co2     Co   0.19015   0.00000   0.30985   1.000
    Co2     Co   0.80985   0.69015   0.00000   1.000
    Co2     Co   0.00000   0.69015   0.80985   1.000
    C1      C    0.41004   0.79912   0.91004   1.000
    C1      C    0.41004   0.91004   0.79912   1.000
    C1      C    0.29912   0.91004   0.91004   1.000
    C1      C    0.08996   0.20088   0.58996   1.000
    C1      C    0.08996   0.08996   0.70088   1.000
    C1      C    0.20088   0.08996   0.58996   1.000
    C1      C    0.08996   0.70088   0.08996   1.000
    C1      C    0.08996   0.58996   0.20088   1.000
    C1      C    0.20088   0.58996   0.08996   1.000
    C1      C    0.58996   0.70088   0.58996   1.000
    C1      C    0.58996   0.58996   0.70088   1.000
    C1      C    0.70088   0.58996   0.58996   1.000
    C1      C    0.41004   0.79912   0.08996   1.000
    C1      C    0.41004   0.91004   0.20088   1.000
    C1      C    0.58996   0.79912   0.91004   1.000
    C1      C    0.58996   0.91004   0.79912   1.000
    C1      C    0.41004   0.08996   0.79912   1.000
    C1      C    0.29912   0.08996   0.91004   1.000
    C1      C    0.29912   0.91004   0.08996   1.000
    C1      C    0.08996   0.79912   0.58996   1.000
    C2      C    0.28451   0.88268   0.07488   1.000
    C2      C    0.28451   0.92512   0.11732   1.000
    C2      C    0.07488   0.78451   0.61732   1.000
    C1      C    0.20088   0.08996   0.41004   1.000
    C1      C    0.08996   0.20088   0.41004   1.000
    C1      C    0.91004   0.20088   0.58996   1.000
    C1      C    0.91004   0.08996   0.70088   1.000
    C1      C    0.08996   0.91004   0.70088   1.000
    C1      C    0.91004   0.58996   0.20088   1.000
    C1      C    0.79912   0.58996   0.08996   1.000
    C1      C    0.08996   0.70088   0.91004   1.000
    C1      C    0.91004   0.70088   0.08996   1.000
    C1      C    0.08996   0.41004   0.20088   1.000
    C1      C    0.20088   0.41004   0.08996   1.000
    C1      C    0.20088   0.58996   0.91004   1.000
    C1      C    0.41004   0.58996   0.70088   1.000
    C1      C    0.29912   0.58996   0.58996   1.000
    C1      C    0.58996   0.70088   0.41004   1.000
    C1      C    0.58996   0.58996   0.29912   1.000
    C1      C    0.58996   0.29912   0.58996   1.000
    C1      C    0.70088   0.41004   0.58996   1.000
    C1      C    0.41004   0.70088   0.58996   1.000
    C1      C    0.58996   0.41004   0.70088   1.000
    C1      C    0.70088   0.58996   0.41004   1.000
    C1      C    0.58996   0.79912   0.08996   1.000
    C1      C    0.20088   0.91004   0.41004   1.000
    C1      C    0.91004   0.41004   0.20088   1.000
    C1      C    0.29912   0.08996   0.08996   1.000
    C1      C    0.91004   0.91004   0.70088   1.000
    C1      C    0.91004   0.70088   0.91004   1.000
    C2      C    0.42512   0.78451   0.88268   1.000
    C2      C    0.38268   0.92512   0.78451   1.000
    C2      C    0.28451   0.88268   0.92512   1.000
    C2      C    0.28451   0.92512   0.88268   1.000
    C2      C    0.42512   0.88268   0.78451   1.000
    C2      C    0.38268   0.78451   0.92512   1.000
    C2      C    0.07488   0.21549   0.61732   1.000
    C2      C    0.11732   0.07488   0.71549   1.000
    C3      C    0.12917   0.24650   0.58733   1.000
    C3      C    0.08733   0.74650   0.12917   1.000
    C3      C    0.12917   0.58733   0.24650   1.000
    C3      C    0.24650   0.62917   0.08733   1.000
    C2      C    0.07488   0.11732   0.71549   1.000
    C2      C    0.11732   0.21549   0.57488   1.000
    C2      C    0.07488   0.71549   0.11732   1.000
    C2      C    0.11732   0.57488   0.21549   1.000
    C2      C    0.21549   0.61732   0.07488   1.000
    C2      C    0.21549   0.57488   0.11732   1.000
    C2      C    0.07488   0.61732   0.21549   1.000
    C2      C    0.11732   0.71549   0.07488   1.000
    C2      C    0.57488   0.71549   0.61732   1.000
    C2      C    0.61732   0.57488   0.71549   1.000
    C2      C    0.71549   0.61732   0.57488   1.000
    C2      C    0.71549   0.57488   0.61732   1.000
    C2      C    0.57488   0.61732   0.71549   1.000
    C2      C    0.61732   0.71549   0.57488   1.000
    C2      C    0.42512   0.78451   0.11732   1.000
    C2      C    0.38268   0.92512   0.21549   1.000
    C2      C    0.42512   0.88268   0.21549   1.000
    C2      C    0.38268   0.78451   0.07488   1.000
    C2      C    0.57488   0.78451   0.88268   1.000
    C2      C    0.61732   0.78451   0.92512   1.000
    C2      C    0.61732   0.92512   0.78451   1.000
    C2      C    0.57488   0.88268   0.78451   1.000
    C2      C    0.38268   0.07488   0.78451   1.000
    C2      C    0.42512   0.11732   0.78451   1.000
    C2      C    0.28451   0.11732   0.92512   1.000
    C2      C    0.28451   0.07488   0.88268   1.000
    C3      C    0.25350   0.58733   0.62917   1.000
    C3      C    0.41267   0.62917   0.74650   1.000
    C3      C    0.58733   0.74650   0.37083   1.000
    C3      C    0.62917   0.58733   0.25350   1.000
    C3      C    0.58733   0.62917   0.25350   1.000
    C2      C    0.21549   0.88268   0.57488   1.000
    C2      C    0.21549   0.92512   0.61732   1.000
    C2      C    0.11732   0.78451   0.57488   1.000
    C2      C    0.21549   0.11732   0.42512   1.000
    C2      C    0.21549   0.07488   0.38268   1.000
    C2      C    0.07488   0.21549   0.38268   1.000
    C2      C    0.11732   0.21549   0.42512   1.000
    C2      C    0.92512   0.21549   0.61732   1.000
    C2      C    0.88268   0.21549   0.57488   1.000
    C2      C    0.88268   0.07488   0.71549   1.000
    C2      C    0.92512   0.11732   0.71549   1.000
    C2      C    0.11732   0.92512   0.71549   1.000
    C2      C    0.07488   0.88268   0.71549   1.000
    C2      C    0.88268   0.57488   0.21549   1.000
    C2      C    0.78451   0.61732   0.07488   1.000
    C2      C    0.78451   0.57488   0.11732   1.000
    C2      C    0.92512   0.61732   0.21549   1.000
    C2      C    0.07488   0.71549   0.88268   1.000
    C2      C    0.11732   0.71549   0.92512   1.000
    C2      C    0.92512   0.71549   0.11732   1.000
    C2      C    0.88268   0.71549   0.07488   1.000
    C2      C    0.11732   0.42512   0.21549   1.000
    C2      C    0.07488   0.38268   0.21549   1.000
    C2      C    0.21549   0.38268   0.07488   1.000
    C2      C    0.21549   0.42512   0.11732   1.000
    C2      C    0.21549   0.61732   0.92512   1.000
    C2      C    0.21549   0.57488   0.88268   1.000
    C2      C    0.38268   0.57488   0.71549   1.000
    C2      C    0.28451   0.61732   0.57488   1.000
    C2      C    0.28451   0.57488   0.61732   1.000
    C2      C    0.42512   0.61732   0.71549   1.000
    C2      C    0.57488   0.71549   0.38268   1.000
    C2      C    0.61732   0.57488   0.28451   1.000
    C2      C    0.57488   0.61732   0.28451   1.000
    C2      C    0.61732   0.71549   0.42512   1.000
    C2      C    0.57488   0.28451   0.61732   1.000
    C2      C    0.71549   0.38268   0.57488   1.000
    C2      C    0.71549   0.42512   0.61732   1.000
    C2      C    0.61732   0.28451   0.57488   1.000
    C2      C    0.42512   0.71549   0.61732   1.000
    C2      C    0.38268   0.71549   0.57488   1.000
    C2      C    0.61732   0.42512   0.71549   1.000
    C2      C    0.57488   0.38268   0.71549   1.000
    C2      C    0.71549   0.61732   0.42512   1.000
    C2      C    0.71549   0.57488   0.38268   1.000
    C2      C    0.57488   0.78451   0.11732   1.000
    C2      C    0.61732   0.78451   0.07488   1.000
    C2      C    0.21549   0.88268   0.42512   1.000
    C2      C    0.21549   0.92512   0.38268   1.000
    C2      C    0.88268   0.42512   0.21549   1.000
    C2      C    0.92512   0.38268   0.21549   1.000
    C2      C    0.28451   0.11732   0.07488   1.000
    C2      C    0.28451   0.07488   0.11732   1.000
    C2      C    0.88268   0.92512   0.71549   1.000
    C2      C    0.92512   0.88268   0.71549   1.000
    C2      C    0.92512   0.71549   0.88268   1.000
    C2      C    0.88268   0.71549   0.92512   1.000
    C3      C    0.41267   0.75350   0.87083   1.000
    C3      C    0.37083   0.91267   0.75350   1.000
    C3      C    0.25350   0.87083   0.91267   1.000
    C3      C    0.25350   0.91267   0.87083   1.000
    C3      C    0.41267   0.87083   0.75350   1.000
    C3      C    0.37083   0.75350   0.91267   1.000
    C3      C    0.08733   0.24650   0.62917   1.000
    C3      C    0.12917   0.08733   0.74650   1.000
    C3      C    0.24650   0.12917   0.58733   1.000
    C3      C    0.24650   0.08733   0.62917   1.000
    C3      C    0.08733   0.12917   0.74650   1.000
    C6      C    0.13477   0.69799   0.04641   1.000
    C6      C    0.54641   0.69799   0.63477   1.000
    C6      C    0.63477   0.54641   0.69799   1.000
    C6      C    0.69799   0.63477   0.54641   1.000
    C6      C    0.69799   0.54641   0.63477   1.000
    C6      C    0.54641   0.63477   0.69799   1.000
    C6      C    0.63477   0.69799   0.54641   1.000
    C6      C    0.45359   0.80201   0.13477   1.000
    C3      C    0.24650   0.58733   0.12917   1.000
    C3      C    0.08733   0.62917   0.24650   1.000
    C3      C    0.12917   0.74650   0.08733   1.000
    C3      C    0.58733   0.74650   0.62917   1.000
    C3      C    0.62917   0.58733   0.74650   1.000
    C3      C    0.74650   0.62917   0.58733   1.000
    C3      C    0.74650   0.58733   0.62917   1.000
    C3      C    0.58733   0.62917   0.74650   1.000
    C3      C    0.62917   0.74650   0.58733   1.000
    C3      C    0.41267   0.75350   0.12917   1.000
    C3      C    0.37083   0.91267   0.24650   1.000
    C3      C    0.41267   0.87083   0.24650   1.000
    C3      C    0.37083   0.75350   0.08733   1.000
    C3      C    0.58733   0.75350   0.87083   1.000
    C3      C    0.62917   0.75350   0.91267   1.000
    C3      C    0.62917   0.91267   0.75350   1.000
    C3      C    0.58733   0.87083   0.75350   1.000
    C3      C    0.37083   0.08733   0.75350   1.000
    C3      C    0.41267   0.12917   0.75350   1.000
    C3      C    0.25350   0.12917   0.91267   1.000
    C3      C    0.25350   0.08733   0.87083   1.000
    C3      C    0.25350   0.87083   0.08733   1.000
    C3      C    0.25350   0.91267   0.12917   1.000
    C3      C    0.08733   0.75350   0.62917   1.000
    C3      C    0.24650   0.87083   0.58733   1.000
    C3      C    0.24650   0.91267   0.62917   1.000
    C3      C    0.12917   0.75350   0.58733   1.000
    C3      C    0.24650   0.12917   0.41267   1.000
    C3      C    0.24650   0.08733   0.37083   1.000
    C3      C    0.08733   0.24650   0.37083   1.000
    C3      C    0.12917   0.24650   0.41267   1.000
    C3      C    0.91267   0.24650   0.62917   1.000
    C3      C    0.87083   0.24650   0.58733   1.000
    C3      C    0.87083   0.08733   0.74650   1.000
    C3      C    0.91267   0.12917   0.74650   1.000
    C3      C    0.12917   0.91267   0.74650   1.000
    C3      C    0.08733   0.87083   0.74650   1.000
    C3      C    0.87083   0.58733   0.24650   1.000
    C3      C    0.75350   0.62917   0.08733   1.000
    C3      C    0.75350   0.58733   0.12917   1.000
    C3      C    0.91267   0.62917   0.24650   1.000
    C3      C    0.08733   0.74650   0.87083   1.000
    C3      C    0.12917   0.74650   0.91267   1.000
    C3      C    0.91267   0.74650   0.12917   1.000
    C3      C    0.87083   0.74650   0.08733   1.000
    C3      C    0.12917   0.41267   0.24650   1.000
    C3      C    0.08733   0.37083   0.24650   1.000
    C3      C    0.24650   0.37083   0.08733   1.000
    C3      C    0.24650   0.41267   0.12917   1.000
    C3      C    0.24650   0.62917   0.91267   1.000
    C3      C    0.24650   0.58733   0.87083   1.000
    C3      C    0.37083   0.58733   0.74650   1.000
    C3      C    0.25350   0.62917   0.58733   1.000
    C9      C    0.46600   0.73190   0.25620   1.000
    C9      C    0.46600   0.75620   0.23190   1.000
    C9      C    0.25620   0.73190   0.53400   1.000
    C9      C    0.23190   0.75620   0.53400   1.000
    C9      C    0.26810   0.53400   0.74380   1.000
    C9      C    0.24380   0.53400   0.76810   1.000
    C9      C    0.26810   0.03400   0.24380   1.000
    C9      C    0.24380   0.03400   0.26810   1.000
    C9      C    0.74380   0.76810   0.03400   1.000
    C9      C    0.76810   0.74380   0.03400   1.000
    C3      C    0.62917   0.74650   0.41267   1.000
    C3      C    0.58733   0.25350   0.62917   1.000
    C3      C    0.74650   0.37083   0.58733   1.000
    C3      C    0.74650   0.41267   0.62917   1.000
    C3      C    0.62917   0.25350   0.58733   1.000
    C3      C    0.41267   0.74650   0.62917   1.000
    C3      C    0.37083   0.74650   0.58733   1.000
    C3      C    0.62917   0.41267   0.74650   1.000
    C3      C    0.58733   0.37083   0.74650   1.000
    C3      C    0.74650   0.62917   0.41267   1.000
    C3      C    0.74650   0.58733   0.37083   1.000
    C3      C    0.58733   0.75350   0.12917   1.000
    C3      C    0.62917   0.75350   0.08733   1.000
    C3      C    0.24650   0.87083   0.41267   1.000
    C3      C    0.24650   0.91267   0.37083   1.000
    C3      C    0.87083   0.41267   0.24650   1.000
    C3      C    0.91267   0.37083   0.24650   1.000
    C3      C    0.25350   0.12917   0.08733   1.000
    C3      C    0.25350   0.08733   0.12917   1.000
    C3      C    0.87083   0.91267   0.74650   1.000
    C3      C    0.91267   0.87083   0.74650   1.000
    C3      C    0.91267   0.74650   0.87083   1.000
    C3      C    0.87083   0.74650   0.91267   1.000
    C4      C    0.38564   0.73849   0.88564   1.000
    C4      C    0.38564   0.88564   0.73849   1.000
    C4      C    0.23849   0.88564   0.88564   1.000
    C4      C    0.11436   0.26151   0.61436   1.000
    C4      C    0.11436   0.11436   0.76151   1.000
    C4      C    0.26151   0.11436   0.61436   1.000
    C4      C    0.11436   0.76151   0.11436   1.000
    C4      C    0.11436   0.61436   0.26151   1.000
    C4      C    0.26151   0.61436   0.11436   1.000
    C4      C    0.61436   0.76151   0.61436   1.000
    C4      C    0.61436   0.61436   0.76151   1.000
    C4      C    0.76151   0.61436   0.61436   1.000
    C4      C    0.38564   0.73849   0.11436   1.000
    C4      C    0.38564   0.88564   0.26151   1.000
    C4      C    0.61436   0.73849   0.88564   1.000
    C4      C    0.61436   0.88564   0.73849   1.000
    C4      C    0.38564   0.11436   0.73849   1.000
    C4      C    0.23849   0.11436   0.88564   1.000
    C4      C    0.23849   0.88564   0.11436   1.000
    C4      C    0.11436   0.73849   0.61436   1.000
    C4      C    0.26151   0.88564   0.61436   1.000
    C4      C    0.26151   0.11436   0.38564   1.000
    C4      C    0.11436   0.26151   0.38564   1.000
    C4      C    0.88564   0.26151   0.61436   1.000
    C4      C    0.88564   0.11436   0.76151   1.000
    C4      C    0.11436   0.88564   0.76151   1.000
    C4      C    0.88564   0.61436   0.26151   1.000
    C4      C    0.73849   0.61436   0.11436   1.000
    C4      C    0.11436   0.76151   0.88564   1.000
    C4      C    0.88564   0.76151   0.11436   1.000
    C4      C    0.11436   0.38564   0.26151   1.000
    C4      C    0.26151   0.38564   0.11436   1.000
    C4      C    0.26151   0.61436   0.88564   1.000
    C4      C    0.38564   0.61436   0.76151   1.000
    C4      C    0.23849   0.61436   0.61436   1.000
    C4      C    0.61436   0.76151   0.38564   1.000
    C4      C    0.61436   0.61436   0.23849   1.000
    C4      C    0.61436   0.23849   0.61436   1.000
    C4      C    0.76151   0.38564   0.61436   1.000
    C4      C    0.38564   0.76151   0.61436   1.000
    C4      C    0.61436   0.38564   0.76151   1.000
    C4      C    0.76151   0.61436   0.38564   1.000
    C4      C    0.61436   0.73849   0.11436   1.000
    C4      C    0.26151   0.88564   0.38564   1.000
    C4      C    0.88564   0.38564   0.26151   1.000
    C4      C    0.23849   0.11436   0.11436   1.000
    C4      C    0.88564   0.88564   0.76151   1.000
    C4      C    0.88564   0.76151   0.88564   1.000
    C5      C    0.37270   0.70470   0.87270   1.000
    C5      C    0.37270   0.87270   0.70470   1.000
    C5      C    0.20470   0.87270   0.87270   1.000
    C5      C    0.12730   0.29530   0.62730   1.000
    C5      C    0.12730   0.12730   0.79530   1.000
    C5      C    0.29530   0.12730   0.62730   1.000
    C5      C    0.12730   0.79530   0.12730   1.000
    C5      C    0.12730   0.62730   0.29530   1.000
    C5      C    0.29530   0.62730   0.12730   1.000
    C5      C    0.62730   0.79530   0.62730   1.000
    C5      C    0.62730   0.62730   0.79530   1.000
    C5      C    0.79530   0.62730   0.62730   1.000
    C5      C    0.37270   0.70470   0.12730   1.000
    C5      C    0.37270   0.87270   0.29530   1.000
    C5      C    0.62730   0.70470   0.87270   1.000
    C5      C    0.62730   0.87270   0.70470   1.000
    C5      C    0.37270   0.12730   0.70470   1.000
    C5      C    0.20470   0.12730   0.87270   1.000
    C5      C    0.20470   0.87270   0.12730   1.000
    C5      C    0.12730   0.70470   0.62730   1.000
    C5      C    0.29530   0.87270   0.62730   1.000
    C5      C    0.29530   0.12730   0.37270   1.000
    C5      C    0.12730   0.29530   0.37270   1.000
    C5      C    0.87270   0.29530   0.62730   1.000
    C5      C    0.87270   0.12730   0.79530   1.000
    C5      C    0.12730   0.87270   0.79530   1.000
    C5      C    0.87270   0.62730   0.29530   1.000
    C5      C    0.70470   0.62730   0.12730   1.000
    C5      C    0.12730   0.79530   0.87270   1.000
    C5      C    0.87270   0.79530   0.12730   1.000
    C5      C    0.12730   0.37270   0.29530   1.000
    C5      C    0.29530   0.37270   0.12730   1.000
    C5      C    0.29530   0.62730   0.87270   1.000
    C5      C    0.37270   0.62730   0.79530   1.000
    C5      C    0.20470   0.62730   0.62730   1.000
    C5      C    0.62730   0.79530   0.37270   1.000
    C5      C    0.62730   0.62730   0.20470   1.000
    C5      C    0.62730   0.20470   0.62730   1.000
    C5      C    0.79530   0.37270   0.62730   1.000
    C5      C    0.37270   0.79530   0.62730   1.000
    C5      C    0.62730   0.37270   0.79530   1.000
    C5      C    0.79530   0.62730   0.37270   1.000
    C5      C    0.62730   0.70470   0.12730   1.000
    C5      C    0.29530   0.87270   0.37270   1.000
    C5      C    0.87270   0.37270   0.29530   1.000
    C5      C    0.20470   0.12730   0.12730   1.000
    C5      C    0.87270   0.87270   0.79530   1.000
    C5      C    0.87270   0.79530   0.87270   1.000
    C6      C    0.45359   0.80201   0.86523   1.000
    C6      C    0.36523   0.95359   0.80201   1.000
    C6      C    0.30201   0.86523   0.95359   1.000
    C6      C    0.30201   0.95359   0.86523   1.000
    C6      C    0.45359   0.86523   0.80201   1.000
    C6      C    0.36523   0.80201   0.95359   1.000
    C6      C    0.04641   0.19799   0.63477   1.000
    C6      C    0.13477   0.04641   0.69799   1.000
    C6      C    0.19799   0.13477   0.54641   1.000
    C6      C    0.19799   0.04641   0.63477   1.000
    C6      C    0.04641   0.13477   0.69799   1.000
    C6      C    0.13477   0.19799   0.54641   1.000
    C6      C    0.04641   0.69799   0.13477   1.000
    C6      C    0.13477   0.54641   0.19799   1.000
    C6      C    0.19799   0.63477   0.04641   1.000
    C6      C    0.19799   0.54641   0.13477   1.000
    C6      C    0.04641   0.63477   0.19799   1.000
    H5C     H    0.31180   0.10990   0.62550   1.000
    H5C     H    0.12550   0.81180   0.10990   1.000
    H5C     H    0.10990   0.62550   0.31180   1.000
    H5C     H    0.31180   0.60990   0.12550   1.000
    H5C     H    0.60990   0.62550   0.81180   1.000
    H5C     H    0.81180   0.62550   0.60990   1.000
    H5C     H    0.60990   0.81180   0.62550   1.000
    H5C     H    0.37450   0.68820   0.10990   1.000
    H5C     H    0.39010   0.87450   0.31180   1.000
    H5C     H    0.62550   0.68820   0.89010   1.000
    H5C     H    0.62550   0.89010   0.68820   1.000
    H5C     H    0.39010   0.12550   0.68820   1.000
    H5C     H    0.18820   0.10990   0.87450   1.000
    H5C     H    0.18820   0.89010   0.12550   1.000
    H5C     H    0.12550   0.68820   0.60990   1.000
    H5C     H    0.31180   0.89010   0.62550   1.000
    C6      C    0.36523   0.95359   0.19799   1.000
    C6      C    0.45359   0.86523   0.19799   1.000
    C6      C    0.36523   0.80201   0.04641   1.000
    C6      C    0.54641   0.80201   0.86523   1.000
    C6      C    0.63477   0.80201   0.95359   1.000
    C6      C    0.63477   0.95359   0.80201   1.000
    C6      C    0.54641   0.86523   0.80201   1.000
    C6      C    0.36523   0.04641   0.80201   1.000
    C6      C    0.45359   0.13477   0.80201   1.000
    C6      C    0.30201   0.13477   0.95359   1.000
    C6      C    0.30201   0.04641   0.86523   1.000
    C6      C    0.30201   0.86523   0.04641   1.000
    C6      C    0.30201   0.95359   0.13477   1.000
    C6      C    0.04641   0.80201   0.63477   1.000
    C6      C    0.19799   0.86523   0.54641   1.000
    C6      C    0.19799   0.95359   0.63477   1.000
    C6      C    0.13477   0.80201   0.54641   1.000
    C6      C    0.19799   0.13477   0.45359   1.000
    C6      C    0.19799   0.04641   0.36523   1.000
    C6      C    0.04641   0.19799   0.36523   1.000
    C6      C    0.13477   0.19799   0.45359   1.000
    C6      C    0.95359   0.19799   0.63477   1.000
    C6      C    0.86523   0.19799   0.54641   1.000
    C6      C    0.86523   0.04641   0.69799   1.000
    C6      C    0.95359   0.13477   0.69799   1.000
    C6      C    0.13477   0.95359   0.69799   1.000
    C6      C    0.04641   0.86523   0.69799   1.000
    C6      C    0.86523   0.54641   0.19799   1.000
    C6      C    0.80201   0.63477   0.04641   1.000
    C6      C    0.80201   0.54641   0.13477   1.000
    C6      C    0.95359   0.63477   0.19799   1.000
    C6      C    0.04641   0.69799   0.86523   1.000
    C6      C    0.13477   0.69799   0.95359   1.000
    C6      C    0.95359   0.69799   0.13477   1.000
    C6      C    0.86523   0.69799   0.04641   1.000
    C6      C    0.13477   0.45359   0.19799   1.000
    C6      C    0.04641   0.36523   0.19799   1.000
    C6      C    0.19799   0.36523   0.04641   1.000
    C6      C    0.19799   0.45359   0.13477   1.000
    C6      C    0.19799   0.63477   0.95359   1.000
    C6      C    0.19799   0.54641   0.86523   1.000
    C6      C    0.36523   0.54641   0.69799   1.000
    C6      C    0.30201   0.63477   0.54641   1.000
    C6      C    0.30201   0.54641   0.63477   1.000
    C6      C    0.45359   0.63477   0.69799   1.000
    C6      C    0.54641   0.69799   0.36523   1.000
    C6      C    0.63477   0.54641   0.30201   1.000
    C6      C    0.54641   0.63477   0.30201   1.000
    C6      C    0.63477   0.69799   0.45359   1.000
    C6      C    0.54641   0.30201   0.63477   1.000
    C6      C    0.69799   0.36523   0.54641   1.000
    C6      C    0.69799   0.45359   0.63477   1.000
    C6      C    0.63477   0.30201   0.54641   1.000
    C6      C    0.45359   0.69799   0.63477   1.000
    C6      C    0.36523   0.69799   0.54641   1.000
    C6      C    0.63477   0.45359   0.69799   1.000
    C6      C    0.54641   0.36523   0.69799   1.000
    C6      C    0.69799   0.63477   0.45359   1.000
    C6      C    0.69799   0.54641   0.36523   1.000
    C6      C    0.54641   0.80201   0.13477   1.000
    C6      C    0.63477   0.80201   0.04641   1.000
    C6      C    0.19799   0.86523   0.45359   1.000
    C6      C    0.19799   0.95359   0.36523   1.000
    C6      C    0.86523   0.45359   0.19799   1.000
    C6      C    0.95359   0.36523   0.19799   1.000
    C6      C    0.30201   0.13477   0.04641   1.000
    C6      C    0.30201   0.04641   0.13477   1.000
    C6      C    0.86523   0.95359   0.69799   1.000
    C6      C    0.95359   0.86523   0.69799   1.000
    C6      C    0.95359   0.69799   0.86523   1.000
    C6      C    0.86523   0.69799   0.95359   1.000
    C7      C    0.50840   0.71410   0.76160   1.000
    C7      C    0.50840   0.73840   0.78590   1.000
    C7      C    0.23840   0.78590   0.00840   1.000
    C7      C    0.21410   0.76160   0.00840   1.000
    C7      C    0.28590   0.23840   0.49160   1.000
    C7      C    0.28590   0.99160   0.73840   1.000
    C7      C    0.26160   0.21410   0.49160   1.000
    C7      C    0.26160   0.99160   0.71410   1.000
    C7      C    0.23840   0.49160   0.28590   1.000
    C7      C    0.21410   0.49160   0.26160   1.000
    C7      C    0.99160   0.71410   0.26160   1.000
    C7      C    0.99160   0.73840   0.28590   1.000
    C7      C    0.50840   0.76160   0.28590   1.000
    C7      C    0.50840   0.78590   0.26160   1.000
    C7      C    0.28590   0.76160   0.49160   1.000
    C7      C    0.26160   0.78590   0.49160   1.000
    C7      C    0.23840   0.49160   0.71410   1.000
    C7      C    0.21410   0.49160   0.73840   1.000
    C7      C    0.23840   0.99160   0.21410   1.000
    C7      C    0.21410   0.99160   0.23840   1.000
    C7      C    0.71410   0.73840   0.99160   1.000
    C7      C    0.73840   0.71410   0.99160   1.000
    C7      C    0.00840   0.71410   0.73840   1.000
    C7      C    0.00840   0.73840   0.71410   1.000
    C9      C    0.46600   0.74380   0.73190   1.000
    C9      C    0.46600   0.76810   0.75620   1.000
    C9      C    0.26810   0.75620   0.96600   1.000
    C9      C    0.24380   0.73190   0.96600   1.000
    C9      C    0.25620   0.26810   0.53400   1.000
    C9      C    0.25620   0.03400   0.76810   1.000
    C9      C    0.23190   0.24380   0.53400   1.000
    C9      C    0.23190   0.03400   0.74380   1.000
    C9      C    0.26810   0.53400   0.25620   1.000
    C9      C    0.24380   0.53400   0.23190   1.000
    C9      C    0.03400   0.74380   0.23190   1.000
    C9      C    0.03400   0.76810   0.25620   1.000
    O1      O    0.67185   0.62178   0.53571   1.000
    O1      O    0.67185   0.53571   0.62178   1.000
    O1      O    0.53571   0.62178   0.67185   1.000
    O1      O    0.62178   0.67185   0.53571   1.000
    O1      O    0.46429   0.82815   0.12178   1.000
    O1      O    0.37822   0.96429   0.17185   1.000
    O1      O    0.46429   0.87822   0.17185   1.000
    O1      O    0.37822   0.82815   0.03571   1.000
    O1      O    0.53571   0.82815   0.87822   1.000
    O1      O    0.62178   0.82815   0.96429   1.000
    O1      O    0.62178   0.96429   0.82815   1.000
    O1      O    0.53571   0.87822   0.82815   1.000
    O1      O    0.37822   0.03571   0.82815   1.000
    O1      O    0.46429   0.12178   0.82815   1.000
    O1      O    0.32815   0.12178   0.96429   1.000
    O1      O    0.32815   0.03571   0.87822   1.000
    O1      O    0.32815   0.87822   0.03571   1.000
    O1      O    0.32815   0.96429   0.12178   1.000
    O1      O    0.03571   0.82815   0.62178   1.000
    O1      O    0.17185   0.87822   0.53571   1.000
    O1      O    0.17185   0.96429   0.62178   1.000
    C9      C    0.96600   0.74380   0.76810   1.000
    C9      C    0.96600   0.76810   0.74380   1.000
    C11     C    0.52360   0.75520   0.72120   1.000
    C11     C    0.52360   0.77880   0.74480   1.000
    C11     C    0.27880   0.74480   0.02360   1.000
    C11     C    0.25520   0.72120   0.02360   1.000
    C11     C    0.24480   0.27880   0.47640   1.000
    C11     C    0.24480   0.97640   0.77880   1.000
    C11     C    0.22120   0.25520   0.47640   1.000
    C11     C    0.22120   0.97640   0.75520   1.000
    C11     C    0.27880   0.47640   0.24480   1.000
    C11     C    0.25520   0.47640   0.22120   1.000
    C11     C    0.97640   0.75520   0.22120   1.000
    C11     C    0.97640   0.77880   0.24480   1.000
    C11     C    0.52360   0.72120   0.24480   1.000
    C11     C    0.52360   0.74480   0.22120   1.000
    C11     C    0.24480   0.72120   0.47640   1.000
    C11     C    0.22120   0.74480   0.47640   1.000
    C11     C    0.27880   0.47640   0.75520   1.000
    C11     C    0.25520   0.47640   0.77880   1.000
    C11     C    0.27880   0.97640   0.25520   1.000
    C11     C    0.25520   0.97640   0.27880   1.000
    C11     C    0.75520   0.77880   0.97640   1.000
    C11     C    0.77880   0.75520   0.97640   1.000
    C11     C    0.02360   0.75520   0.77880   1.000
    C11     C    0.02360   0.77880   0.75520   1.000
    H1      H    0.41850   0.81920   0.91850   1.000
    H1      H    0.41850   0.91850   0.81920   1.000
    H1      H    0.31920   0.91850   0.91850   1.000
    H1      H    0.08150   0.18080   0.58150   1.000
    H1      H    0.08150   0.08150   0.68080   1.000
    H1      H    0.18080   0.08150   0.58150   1.000
    H1      H    0.08150   0.68080   0.08150   1.000
    H1      H    0.08150   0.58150   0.18080   1.000
    H1      H    0.18080   0.58150   0.08150   1.000
    H1      H    0.58150   0.68080   0.58150   1.000
    H1      H    0.58150   0.58150   0.68080   1.000
    H1      H    0.68080   0.58150   0.58150   1.000
    H1      H    0.41850   0.81920   0.08150   1.000
    H1      H    0.41850   0.91850   0.18080   1.000
    H1      H    0.58150   0.81920   0.91850   1.000
    H1      H    0.58150   0.91850   0.81920   1.000
    H1      H    0.41850   0.08150   0.81920   1.000
    H1      H    0.31920   0.08150   0.91850   1.000
    H1      H    0.31920   0.91850   0.08150   1.000
    H1      H    0.08150   0.81920   0.58150   1.000
    H1      H    0.18080   0.91850   0.58150   1.000
    H1      H    0.18080   0.08150   0.41850   1.000
    H1      H    0.08150   0.18080   0.41850   1.000
    H1      H    0.91850   0.18080   0.58150   1.000
    H1      H    0.91850   0.08150   0.68080   1.000
    H1      H    0.08150   0.91850   0.68080   1.000
    H1      H    0.91850   0.58150   0.18080   1.000
    H1      H    0.81920   0.58150   0.08150   1.000
    H1      H    0.08150   0.68080   0.91850   1.000
    H1      H    0.91850   0.68080   0.08150   1.000
    H1      H    0.08150   0.41850   0.18080   1.000
    H1      H    0.18080   0.41850   0.08150   1.000
    H1      H    0.18080   0.58150   0.91850   1.000
    H1      H    0.41850   0.58150   0.68080   1.000
    H1      H    0.31920   0.58150   0.58150   1.000
    H1      H    0.58150   0.68080   0.41850   1.000
    H1      H    0.58150   0.58150   0.31920   1.000
    H1      H    0.58150   0.31920   0.58150   1.000
    H1      H    0.68080   0.41850   0.58150   1.000
    H1      H    0.41850   0.68080   0.58150   1.000
    H1      H    0.58150   0.41850   0.68080   1.000
    H1      H    0.68080   0.58150   0.41850   1.000
    H1      H    0.58150   0.81920   0.08150   1.000
    H1      H    0.18080   0.91850   0.41850   1.000
    H1      H    0.91850   0.41850   0.18080   1.000
    H1      H    0.31920   0.08150   0.08150   1.000
    H1      H    0.91850   0.91850   0.68080   1.000
    H1      H    0.91850   0.68080   0.91850   1.000
    H3      H    0.42300   0.74320   0.85270   1.000
    H3      H    0.35270   0.92300   0.74320   1.000
    H3      H    0.24320   0.85270   0.92300   1.000
    H3      H    0.24320   0.92300   0.85270   1.000
    H3      H    0.42300   0.85270   0.74320   1.000
    H3      H    0.35270   0.74320   0.92300   1.000
    H3      H    0.07700   0.25680   0.64730   1.000
    H3      H    0.14730   0.07700   0.75680   1.000
    H3      H    0.25680   0.14730   0.57700   1.000
    H3      H    0.25680   0.07700   0.64730   1.000
    H3      H    0.07700   0.14730   0.75680   1.000
    H3      H    0.14730   0.25680   0.57700   1.000
    H3      H    0.07700   0.75680   0.14730   1.000
    H3      H    0.14730   0.57700   0.25680   1.000
    H3      H    0.25680   0.64730   0.07700   1.000
    H3      H    0.25680   0.57700   0.14730   1.000
    H3      H    0.07700   0.64730   0.25680   1.000
    H3      H    0.14730   0.75680   0.07700   1.000
    H3      H    0.57700   0.75680   0.64730   1.000
    H3      H    0.64730   0.57700   0.75680   1.000
    H3      H    0.75680   0.64730   0.57700   1.000
    H3      H    0.75680   0.57700   0.64730   1.000
    H3      H    0.57700   0.64730   0.75680   1.000
    H3      H    0.64730   0.75680   0.57700   1.000
    H3      H    0.42300   0.74320   0.14730   1.000
    H3      H    0.35270   0.92300   0.25680   1.000
    H3      H    0.42300   0.85270   0.25680   1.000
    H3      H    0.35270   0.74320   0.07700   1.000
    H3      H    0.57700   0.74320   0.85270   1.000
    H3      H    0.64730   0.74320   0.92300   1.000
    H3      H    0.64730   0.92300   0.74320   1.000
    H3      H    0.57700   0.85270   0.74320   1.000
    H3      H    0.35270   0.07700   0.74320   1.000
    H3      H    0.42300   0.14730   0.74320   1.000
    H3      H    0.24320   0.14730   0.92300   1.000
    H3      H    0.24320   0.07700   0.85270   1.000
    H3      H    0.24320   0.85270   0.07700   1.000
    H3      H    0.24320   0.92300   0.14730   1.000
    H3      H    0.07700   0.74320   0.64730   1.000
    H3      H    0.25680   0.85270   0.57700   1.000
    H3      H    0.25680   0.92300   0.64730   1.000
    H3      H    0.14730   0.74320   0.57700   1.000
    H3      H    0.25680   0.14730   0.42300   1.000
    H3      H    0.25680   0.07700   0.35270   1.000
    H3      H    0.07700   0.25680   0.35270   1.000
    H3      H    0.14730   0.25680   0.42300   1.000
    H3      H    0.92300   0.25680   0.64730   1.000
    H3      H    0.85270   0.25680   0.57700   1.000
    H3      H    0.85270   0.07700   0.75680   1.000
    H3      H    0.92300   0.14730   0.75680   1.000
    H3      H    0.14730   0.92300   0.75680   1.000
    H3      H    0.07700   0.85270   0.75680   1.000
    H3      H    0.85270   0.57700   0.25680   1.000
    H3      H    0.74320   0.64730   0.07700   1.000
    H3      H    0.74320   0.57700   0.14730   1.000
    H3      H    0.92300   0.64730   0.25680   1.000
    H3      H    0.07700   0.75680   0.85270   1.000
    H3      H    0.14730   0.75680   0.92300   1.000
    H3      H    0.92300   0.75680   0.14730   1.000
    H3      H    0.85270   0.75680   0.07700   1.000
    H3      H    0.14730   0.42300   0.25680   1.000
    H3      H    0.07700   0.35270   0.25680   1.000
    H3      H    0.25680   0.35270   0.07700   1.000
    H3      H    0.25680   0.42300   0.14730   1.000
    H3      H    0.25680   0.64730   0.92300   1.000
    H3      H    0.25680   0.57700   0.85270   1.000
    H3      H    0.35270   0.57700   0.75680   1.000
    H3      H    0.24320   0.64730   0.57700   1.000
    H3      H    0.24320   0.57700   0.64730   1.000
    H3      H    0.42300   0.64730   0.75680   1.000
    H3      H    0.57700   0.75680   0.35270   1.000
    H3      H    0.64730   0.57700   0.24320   1.000
    H3      H    0.57700   0.64730   0.24320   1.000
    H3      H    0.64730   0.75680   0.42300   1.000
    H3      H    0.57700   0.24320   0.64730   1.000
    H3      H    0.75680   0.35270   0.57700   1.000
    H3      H    0.75680   0.42300   0.64730   1.000
    H3      H    0.64730   0.24320   0.57700   1.000
    H3      H    0.42300   0.75680   0.64730   1.000
    H3      H    0.35270   0.75680   0.57700   1.000
    H3      H    0.64730   0.42300   0.75680   1.000
    H3      H    0.57700   0.35270   0.75680   1.000
    H3      H    0.75680   0.64730   0.42300   1.000
    H3      H    0.75680   0.57700   0.35270   1.000
    H3      H    0.57700   0.74320   0.14730   1.000
    H3      H    0.64730   0.74320   0.07700   1.000
    H3      H    0.25680   0.85270   0.42300   1.000
    H3      H    0.25680   0.92300   0.35270   1.000
    H3      H    0.85270   0.42300   0.25680   1.000
    H3      H    0.92300   0.35270   0.25680   1.000
    H3      H    0.24320   0.14730   0.07700   1.000
    H3      H    0.24320   0.07700   0.14730   1.000
    H3      H    0.85270   0.92300   0.75680   1.000
    H3      H    0.92300   0.85270   0.75680   1.000
    H3      H    0.92300   0.75680   0.85270   1.000
    H3      H    0.85270   0.75680   0.92300   1.000
    H5A     H    0.38580   0.69780   0.85380   1.000
    H5A     H    0.35380   0.88580   0.69780   1.000
    H5A     H    0.19780   0.85380   0.88580   1.000
    H5A     H    0.11420   0.30220   0.64620   1.000
    H5A     H    0.14620   0.11420   0.80220   1.000
    H5A     H    0.30220   0.14620   0.61420   1.000
    H5A     H    0.11420   0.80220   0.14620   1.000
    H5A     H    0.14620   0.61420   0.30220   1.000
    H5A     H    0.30220   0.64620   0.11420   1.000
    H5A     H    0.64620   0.61420   0.80220   1.000
    H5A     H    0.80220   0.61420   0.64620   1.000
    H5A     H    0.64620   0.80220   0.61420   1.000
    H5A     H    0.38580   0.69780   0.14620   1.000
    H5A     H    0.35380   0.88580   0.30220   1.000
    H5A     H    0.61420   0.69780   0.85380   1.000
    H5A     H    0.61420   0.85380   0.69780   1.000
    H5A     H    0.35380   0.11420   0.69780   1.000
    H5A     H    0.19780   0.14620   0.88580   1.000
    H5A     H    0.19780   0.85380   0.11420   1.000
    H5A     H    0.11420   0.69780   0.64620   1.000
    H5A     H    0.30220   0.85380   0.61420   1.000
    H5A     H    0.30220   0.11420   0.35380   1.000
    H5A     H    0.14620   0.30220   0.38580   1.000
    H5A     H    0.88580   0.30220   0.64620   1.000
    H5A     H    0.85380   0.11420   0.80220   1.000
    H5A     H    0.14620   0.88580   0.80220   1.000
    H5A     H    0.85380   0.61420   0.30220   1.000
    H5A     H    0.69780   0.64620   0.11420   1.000
    H5A     H    0.11420   0.80220   0.85380   1.000
    H5A     H    0.88580   0.80220   0.14620   1.000
    H5A     H    0.11420   0.35380   0.30220   1.000
    H5A     H    0.30220   0.35380   0.11420   1.000
    H5A     H    0.30220   0.64620   0.88580   1.000
    H5A     H    0.35380   0.61420   0.80220   1.000
    H5A     H    0.19780   0.64620   0.61420   1.000
    H5A     H    0.61420   0.80220   0.35380   1.000
    H5A     H    0.64620   0.61420   0.19780   1.000
    H5A     H    0.61420   0.19780   0.64620   1.000
    H5A     H    0.80220   0.35380   0.61420   1.000
    H5A     H    0.38580   0.80220   0.64620   1.000
    H5A     H    0.64620   0.38580   0.80220   1.000
    H5A     H    0.80220   0.64620   0.38580   1.000
    H5A     H    0.61420   0.69780   0.14620   1.000
    H5A     H    0.30220   0.85380   0.38580   1.000
    H5A     H    0.85380   0.38580   0.30220   1.000
    H5A     H    0.19780   0.11420   0.14620   1.000
    H5A     H    0.88580   0.85380   0.80220   1.000
    H5A     H    0.85380   0.80220   0.88580   1.000
    H5B     H    0.34970   0.70690   0.86610   1.000
    H5B     H    0.36610   0.84970   0.70690   1.000
    H5B     H    0.20690   0.86610   0.84970   1.000
    H5B     H    0.15030   0.29310   0.63390   1.000
    H5B     H    0.13390   0.15030   0.79310   1.000
    H5B     H    0.29310   0.13390   0.65030   1.000
    H5B     H    0.15030   0.79310   0.13390   1.000
    H5B     H    0.13390   0.65030   0.29310   1.000
    H5B     H    0.29310   0.63390   0.15030   1.000
    H5B     H    0.63390   0.65030   0.79310   1.000
    H5B     H    0.79310   0.65030   0.63390   1.000
    H5B     H    0.63390   0.79310   0.65030   1.000
    H5B     H    0.34970   0.70690   0.13390   1.000
    H5B     H    0.36610   0.84970   0.29310   1.000
    H5B     H    0.65030   0.70690   0.86610   1.000
    H5B     H    0.65030   0.86610   0.70690   1.000
    H5B     H    0.36610   0.15030   0.70690   1.000
    H5B     H    0.20690   0.13390   0.84970   1.000
    H5B     H    0.20690   0.86610   0.15030   1.000
    H5B     H    0.15030   0.70690   0.63390   1.000
    H5B     H    0.29310   0.86610   0.65030   1.000
    H5B     H    0.29310   0.15030   0.36610   1.000
    H5B     H    0.13390   0.29310   0.34970   1.000
    H5B     H    0.84970   0.29310   0.63390   1.000
    H5B     H    0.86610   0.15030   0.79310   1.000
    H5B     H    0.13390   0.84970   0.79310   1.000
    H5B     H    0.86610   0.65030   0.29310   1.000
    H5B     H    0.70690   0.63390   0.15030   1.000
    H5B     H    0.15030   0.79310   0.86610   1.000
    H5B     H    0.84970   0.79310   0.13390   1.000
    H5B     H    0.15030   0.36610   0.29310   1.000
    H5B     H    0.29310   0.36610   0.15030   1.000
    H5B     H    0.29310   0.63390   0.84970   1.000
    H5B     H    0.36610   0.65030   0.79310   1.000
    H5B     H    0.20690   0.63390   0.65030   1.000
    H5B     H    0.65030   0.79310   0.36610   1.000
    H5B     H    0.63390   0.65030   0.20690   1.000
    H5B     H    0.65030   0.20690   0.63390   1.000
    H5B     H    0.79310   0.36610   0.65030   1.000
    H5B     H    0.34970   0.79310   0.63390   1.000
    H5B     H    0.63390   0.34970   0.79310   1.000
    H5B     H    0.79310   0.63390   0.34970   1.000
    H5B     H    0.65030   0.70690   0.13390   1.000
    H5B     H    0.29310   0.86610   0.34970   1.000
    H5B     H    0.86610   0.34970   0.29310   1.000
    H5B     H    0.20690   0.15030   0.13390   1.000
    H5B     H    0.84970   0.86610   0.79310   1.000
    H5B     H    0.86610   0.79310   0.84970   1.000
    H5C     H    0.37450   0.68820   0.89010   1.000
    H5C     H    0.39010   0.87450   0.68820   1.000
    H5C     H    0.18820   0.89010   0.87450   1.000
    H5C     H    0.12550   0.31180   0.60990   1.000
    H5C     H    0.10990   0.12550   0.81180   1.000
    H5C     H    0.31180   0.12550   0.39010   1.000
    H5C     H    0.10990   0.31180   0.37450   1.000
    H5C     H    0.87450   0.31180   0.60990   1.000
    H5C     H    0.89010   0.12550   0.81180   1.000
    H5C     H    0.10990   0.87450   0.81180   1.000
    H5C     H    0.89010   0.62550   0.31180   1.000
    H5C     H    0.68820   0.60990   0.12550   1.000
    H5C     H    0.12550   0.81180   0.89010   1.000
    H5C     H    0.87450   0.81180   0.10990   1.000
    H5C     H    0.12550   0.39010   0.31180   1.000
    H5C     H    0.31180   0.39010   0.12550   1.000
    H5C     H    0.31180   0.60990   0.87450   1.000
    H5C     H    0.39010   0.62550   0.81180   1.000
    H5C     H    0.18820   0.60990   0.62550   1.000
    H5C     H    0.62550   0.81180   0.39010   1.000
    H5C     H    0.60990   0.62550   0.18820   1.000
    H5C     H    0.62550   0.18820   0.60990   1.000
    H5C     H    0.81180   0.39010   0.62550   1.000
    H5C     H    0.37450   0.81180   0.60990   1.000
    H5C     H    0.60990   0.37450   0.81180   1.000
    H5C     H    0.81180   0.60990   0.37450   1.000
    H5C     H    0.62550   0.68820   0.10990   1.000
    H5C     H    0.31180   0.89010   0.37450   1.000
    H5C     H    0.89010   0.37450   0.31180   1.000
    H5C     H    0.18820   0.12550   0.10990   1.000
    H5C     H    0.87450   0.89010   0.81180   1.000
    H5C     H    0.89010   0.81180   0.87450   1.000
    H7A     H    0.46470   0.75695   0.70735   1.000
    H7A     H    0.53530   0.70735   0.75695   1.000
    H7A     H    0.53530   0.74305   0.79265   1.000
    H7A     H    0.24305   0.79265   0.03530   1.000
    H7A     H    0.46470   0.79265   0.74305   1.000
    H7A     H    0.29265   0.74305   0.96470   1.000
    H7A     H    0.25695   0.70735   0.96470   1.000
    H7A     H    0.20735   0.75695   0.03530   1.000
    H7A     H    0.24305   0.29265   0.53530   1.000
    H7A     H    0.29265   0.24305   0.46470   1.000
    H7A     H    0.29265   0.96470   0.74305   1.000
    H7A     H    0.24305   0.03530   0.79265   1.000
    H7A     H    0.20735   0.03530   0.75695   1.000
    H7A     H    0.25695   0.20735   0.46470   1.000
    H7A     H    0.25695   0.96470   0.70735   1.000
    H7A     H    0.20735   0.25695   0.53530   1.000
    H7A     H    0.29265   0.53530   0.24305   1.000
    H7A     H    0.24305   0.46470   0.29265   1.000
    H7A     H    0.03530   0.75695   0.20735   1.000
    H7A     H    0.20735   0.46470   0.25695   1.000
    H7A     H    0.25695   0.53530   0.20735   1.000
    H7A     H    0.96470   0.70735   0.25695   1.000
    H7A     H    0.96470   0.74305   0.29265   1.000
    H7A     H    0.03530   0.79265   0.24305   1.000
    H7A     H    0.53530   0.75695   0.29265   1.000
    H7A     H    0.46470   0.70735   0.24305   1.000
    H7A     H    0.46470   0.74305   0.20735   1.000
    H7A     H    0.53530   0.79265   0.25695   1.000
    H7A     H    0.24305   0.70735   0.53530   1.000
    H7A     H    0.29265   0.75695   0.46470   1.000
    H7A     H    0.25695   0.79265   0.46470   1.000
    H7A     H    0.20735   0.74305   0.53530   1.000
    H7A     H    0.29265   0.53530   0.75695   1.000
    H7A     H    0.24305   0.46470   0.70735   1.000
    H7A     H    0.20735   0.46470   0.74305   1.000
    H7A     H    0.25695   0.53530   0.79265   1.000
    H7A     H    0.29265   0.03530   0.25695   1.000
    H7A     H    0.24305   0.96470   0.20735   1.000
    H7A     H    0.20735   0.96470   0.24305   1.000
    H7A     H    0.25695   0.03530   0.29265   1.000
    H7A     H    0.75695   0.79265   0.03530   1.000
    H7A     H    0.70735   0.74305   0.96470   1.000
    H7A     H    0.74305   0.70735   0.96470   1.000
    H7A     H    0.79265   0.75695   0.03530   1.000
    H7A     H    0.96470   0.75695   0.79265   1.000
    H7A     H    0.03530   0.70735   0.74305   1.000
    H7A     H    0.03530   0.74305   0.70735   1.000
    H7A     H    0.96470   0.79265   0.75695   1.000
    H7B     H    0.51265   0.76625   0.69815   1.000
    H7B     H    0.48735   0.69815   0.76625   1.000
    H7B     H    0.48735   0.73375   0.80185   1.000
    H7B     H    0.23375   0.80185   0.98735   1.000
    H7B     H    0.51265   0.80185   0.73375   1.000
    H7B     H    0.30185   0.73375   0.01265   1.000
    H7B     H    0.26625   0.69815   0.01265   1.000
    H7B     H    0.19815   0.76625   0.98735   1.000
    H7B     H    0.23375   0.30185   0.48735   1.000
    H7B     H    0.30185   0.23375   0.51265   1.000
    H7B     H    0.30185   0.01265   0.73375   1.000
    H7B     H    0.23375   0.98735   0.80185   1.000
    H7B     H    0.19815   0.98735   0.76625   1.000
    H7B     H    0.26625   0.19815   0.51265   1.000
    H7B     H    0.26625   0.01265   0.69815   1.000
    H7B     H    0.19815   0.26625   0.48735   1.000
    H7B     H    0.30185   0.48735   0.23375   1.000
    H7B     H    0.23375   0.51265   0.30185   1.000
    H7B     H    0.98735   0.76625   0.19815   1.000
    H7B     H    0.19815   0.51265   0.26625   1.000
    H7B     H    0.26625   0.48735   0.19815   1.000
    H7B     H    0.01265   0.69815   0.26625   1.000
    H7B     H    0.01265   0.73375   0.30185   1.000
    H7B     H    0.98735   0.80185   0.23375   1.000
    H7B     H    0.48735   0.76625   0.30185   1.000
    H7B     H    0.51265   0.69815   0.23375   1.000
    H7B     H    0.51265   0.73375   0.19815   1.000
    H7B     H    0.48735   0.80185   0.26625   1.000
    H7B     H    0.23375   0.69815   0.48735   1.000
    H7B     H    0.30185   0.76625   0.51265   1.000
    H7B     H    0.26625   0.80185   0.51265   1.000
    H7B     H    0.19815   0.73375   0.48735   1.000
    H7B     H    0.30185   0.48735   0.76625   1.000
    H7B     H    0.23375   0.51265   0.69815   1.000
    H7B     H    0.19815   0.51265   0.73375   1.000
    H7B     H    0.26625   0.48735   0.80185   1.000
    H7B     H    0.30185   0.98735   0.26625   1.000
    H7B     H    0.23375   0.01265   0.19815   1.000
    H7B     H    0.19815   0.01265   0.23375   1.000
    H7B     H    0.26625   0.98735   0.30185   1.000
    H7B     H    0.76625   0.80185   0.98735   1.000
    H7B     H    0.69815   0.73375   0.01265   1.000
    H7B     H    0.73375   0.69815   0.01265   1.000
    H7B     H    0.80185   0.76625   0.98735   1.000
    H7B     H    0.01265   0.76625   0.80185   1.000
    H7B     H    0.98735   0.69815   0.73375   1.000
    H7B     H    0.98735   0.73375   0.69815   1.000
    H7B     H    0.01265   0.80185   0.76625   1.000
    H9      H    0.54810   0.74140   0.72295   1.000
    H9      H    0.45190   0.72295   0.74140   1.000
    H9      H    0.45190   0.75860   0.77705   1.000
    H9      H    0.25860   0.77705   0.95190   1.000
    H9      H    0.54810   0.77705   0.75860   1.000
    H9      H    0.27705   0.75860   0.04810   1.000
    H9      H    0.24140   0.72295   0.04810   1.000
    H9      H    0.22295   0.74140   0.95190   1.000
    H9      H    0.25860   0.27705   0.45190   1.000
    H9      H    0.27705   0.25860   0.54810   1.000
    H9      H    0.27705   0.04810   0.75860   1.000
    H9      H    0.25860   0.95190   0.77705   1.000
    H9      H    0.22295   0.95190   0.74140   1.000
    H9      H    0.24140   0.22295   0.54810   1.000
    H9      H    0.24140   0.04810   0.72295   1.000
    H9      H    0.22295   0.24140   0.45190   1.000
    H9      H    0.27705   0.45190   0.25860   1.000
    H9      H    0.25860   0.54810   0.27705   1.000
    H9      H    0.95190   0.74140   0.22295   1.000
    H9      H    0.22295   0.54810   0.24140   1.000
    H9      H    0.24140   0.45190   0.22295   1.000
    H9      H    0.04810   0.72295   0.24140   1.000
    H9      H    0.04810   0.75860   0.27705   1.000
    H9      H    0.95190   0.77705   0.25860   1.000
    H9      H    0.45190   0.74140   0.27705   1.000
    H9      H    0.54810   0.72295   0.25860   1.000
    H9      H    0.54810   0.75860   0.22295   1.000
    H9      H    0.45190   0.77705   0.24140   1.000
    H9      H    0.25860   0.72295   0.45190   1.000
    H9      H    0.27705   0.74140   0.54810   1.000
    H9      H    0.24140   0.77705   0.54810   1.000
    H9      H    0.22295   0.75860   0.45190   1.000
    H9      H    0.27705   0.45190   0.74140   1.000
    H9      H    0.25860   0.54810   0.72295   1.000
    H9      H    0.22295   0.54810   0.75860   1.000
    H9      H    0.24140   0.45190   0.77705   1.000
    H9      H    0.27705   0.95190   0.24140   1.000
    H9      H    0.25860   0.04810   0.22295   1.000
    H9      H    0.22295   0.04810   0.25860   1.000
    H9      H    0.24140   0.95190   0.27705   1.000
    H9      H    0.74140   0.77705   0.95190   1.000
    H9      H    0.72295   0.75860   0.04810   1.000
    H9      H    0.75860   0.72295   0.04810   1.000
    H9      H    0.77705   0.74140   0.95190   1.000
    H9      H    0.04810   0.74140   0.77705   1.000
    H9      H    0.95190   0.72295   0.75860   1.000
    H9      H    0.95190   0.75860   0.72295   1.000
    H9      H    0.04810   0.77705   0.74140   1.000
    N1      N    0.50000   0.72890   0.72890   1.000
    N1      N    0.50000   0.77110   0.77110   1.000
    N1      N    0.27110   0.77110   0.00000   1.000
    N1      N    0.22890   0.72890   0.00000   1.000
    N1      N    0.27110   0.27110   0.50000   1.000
    N1      N    0.27110   0.00000   0.77110   1.000
    N1      N    0.22890   0.00000   0.72890   1.000
    N1      N    0.22890   0.22890   0.50000   1.000
    N1      N    0.27110   0.50000   0.27110   1.000
    N1      N    0.00000   0.72890   0.22890   1.000
    N1      N    0.22890   0.50000   0.22890   1.000
    N1      N    0.00000   0.77110   0.27110   1.000
    N1      N    0.50000   0.72900   0.27110   1.000
    N1      N    0.50000   0.77100   0.22900   1.000
    N1      N    0.27100   0.72890   0.50000   1.000
    N1      N    0.22900   0.77100   0.50000   1.000
    N1      N    0.27110   0.50000   0.72900   1.000
    N1      N    0.22900   0.50000   0.77100   1.000
    N1      N    0.27110   0.00000   0.22900   1.000
    N1      N    0.22890   0.00000   0.27100   1.000
    N1      N    0.72900   0.77110   0.00000   1.000
    N1      N    0.77100   0.72890   0.00000   1.000
    N1      N    0.00000   0.72900   0.77110   1.000
    N1      N    0.00000   0.77100   0.72890   1.000
    O1      O    0.46429   0.82815   0.87822   1.000
    O1      O    0.37822   0.96429   0.82815   1.000
    O1      O    0.32815   0.87822   0.96429   1.000
    O1      O    0.32815   0.96429   0.87822   1.000
    O1      O    0.46429   0.87822   0.82815   1.000
    O1      O    0.37822   0.82815   0.96429   1.000
    O1      O    0.03571   0.17185   0.62178   1.000
    O1      O    0.12178   0.03571   0.67185   1.000
    O1      O    0.17185   0.12178   0.53571   1.000
    O1      O    0.17185   0.03571   0.62178   1.000
    O1      O    0.03571   0.12178   0.67185   1.000
    O1      O    0.12178   0.17185   0.53571   1.000
    O1      O    0.03571   0.67185   0.12178   1.000
    O1      O    0.12178   0.53571   0.17185   1.000
    O1      O    0.17185   0.62178   0.03571   1.000
    O1      O    0.17185   0.53571   0.12178   1.000
    O1      O    0.03571   0.62178   0.17185   1.000
    O1      O    0.12178   0.67185   0.03571   1.000
    O1      O    0.53571   0.67185   0.62178   1.000
    O1      O    0.62178   0.53571   0.67185   1.000
    O1      O    0.12178   0.82815   0.53571   1.000
    O1      O    0.17185   0.12178   0.46429   1.000
    O1      O    0.17185   0.03571   0.37822   1.000
    O1      O    0.03571   0.17185   0.37822   1.000
    O1      O    0.12178   0.17185   0.46429   1.000
    O1      O    0.96429   0.17185   0.62178   1.000
    O1      O    0.87822   0.17185   0.53571   1.000
    O1      O    0.87822   0.03571   0.67185   1.000
    O1      O    0.96429   0.12178   0.67185   1.000
    O1      O    0.12178   0.96429   0.67185   1.000
    O1      O    0.03571   0.87822   0.67185   1.000
    O1      O    0.87822   0.53571   0.17185   1.000
    O1      O    0.82815   0.62178   0.03571   1.000
    O1      O    0.82815   0.53571   0.12178   1.000
    O1      O    0.96429   0.62178   0.17185   1.000
    O1      O    0.03571   0.67185   0.87822   1.000
    O1      O    0.12178   0.67185   0.96429   1.000
    O1      O    0.96429   0.67185   0.12178   1.000
    O1      O    0.87822   0.67185   0.03571   1.000
    O1      O    0.12178   0.46429   0.17185   1.000
    O1      O    0.03571   0.37822   0.17185   1.000
    O1      O    0.17185   0.37822   0.03571   1.000
    O1      O    0.17185   0.46429   0.12178   1.000
    O1      O    0.17185   0.62178   0.96429   1.000
    O1      O    0.17185   0.53571   0.87822   1.000
    O1      O    0.37822   0.53571   0.67185   1.000
    O1      O    0.32815   0.62178   0.53571   1.000
    O1      O    0.32815   0.53571   0.62178   1.000
    O1      O    0.46429   0.62178   0.67185   1.000
    O1      O    0.53571   0.67185   0.37822   1.000
    O1      O    0.62178   0.53571   0.32815   1.000
    O1      O    0.53571   0.62178   0.32815   1.000
    O1      O    0.62178   0.67185   0.46429   1.000
    O1      O    0.53571   0.32815   0.62178   1.000
    O1      O    0.67185   0.37822   0.53571   1.000
    O1      O    0.67185   0.46429   0.62178   1.000
    O1      O    0.62178   0.32815   0.53571   1.000
    O1      O    0.46429   0.67185   0.62178   1.000
    O1      O    0.37822   0.67185   0.53571   1.000
    O1      O    0.62178   0.46429   0.67185   1.000
    O1      O    0.53571   0.37822   0.67185   1.000
    O1      O    0.67185   0.62178   0.46429   1.000
    O1      O    0.67185   0.53571   0.37822   1.000
    O1      O    0.53571   0.82815   0.12178   1.000
    O1      O    0.62178   0.82815   0.03571   1.000
    O1      O    0.17185   0.87822   0.46429   1.000
    O1      O    0.17185   0.96429   0.37822   1.000
    O1      O    0.87822   0.46429   0.17185   1.000
    O1      O    0.96429   0.37822   0.17185   1.000
    O1      O    0.32815   0.12178   0.03571   1.000
    O1      O    0.32815   0.03571   0.12178   1.000
    O1      O    0.87822   0.96429   0.67185   1.000
    O1      O    0.96429   0.87822   0.67185   1.000
    O1      O    0.96429   0.67185   0.87822   1.000
    O1      O    0.87822   0.67185   0.96429   1.000
    O2      O    0.46435   0.78872   0.83893   1.000
    O2      O    0.33893   0.96435   0.78872   1.000
    O2      O    0.28872   0.83893   0.96435   1.000
    O2      O    0.28872   0.96435   0.83893   1.000
    O2      O    0.46435   0.83893   0.78872   1.000
    O2      O    0.33893   0.78872   0.96435   1.000
    O2      O    0.03565   0.21128   0.66107   1.000
    O2      O    0.16107   0.03565   0.71128   1.000
    O2      O    0.21128   0.16107   0.53565   1.000
    O2      O    0.21128   0.03565   0.66107   1.000
    O2      O    0.03565   0.16107   0.71128   1.000
    O2      O    0.16107   0.21128   0.53565   1.000
    O2      O    0.03565   0.71128   0.16107   1.000
    O2      O    0.16107   0.53565   0.21128   1.000
    O2      O    0.21128   0.66107   0.03565   1.000
    O2      O    0.21128   0.53565   0.16107   1.000
    O2      O    0.03565   0.66107   0.21128   1.000
    O2      O    0.16107   0.71128   0.03565   1.000
    O2      O    0.53565   0.71128   0.66107   1.000
    O2      O    0.66107   0.53565   0.71128   1.000
    O2      O    0.71128   0.66107   0.53565   1.000
    O2      O    0.71128   0.53565   0.66107   1.000
    O2      O    0.53565   0.66107   0.71128   1.000
    O2      O    0.66107   0.71128   0.53565   1.000
    O2      O    0.46435   0.78872   0.16107   1.000
    O2      O    0.33893   0.96435   0.21128   1.000
    O2      O    0.46435   0.83893   0.21128   1.000
    O2      O    0.33893   0.78872   0.03565   1.000
    O2      O    0.53565   0.78872   0.83893   1.000
    O2      O    0.66107   0.78872   0.96435   1.000
    O2      O    0.66107   0.96435   0.78872   1.000
    O2      O    0.53565   0.83893   0.78872   1.000
    O2      O    0.33893   0.03565   0.78872   1.000
    O2      O    0.46435   0.16107   0.78872   1.000
    O2      O    0.28872   0.16107   0.96435   1.000
    O2      O    0.28872   0.03565   0.83893   1.000
    O2      O    0.28872   0.83893   0.03565   1.000
    O2      O    0.28872   0.96435   0.16107   1.000
    O2      O    0.03565   0.78872   0.66107   1.000
    O2      O    0.21128   0.83893   0.53565   1.000
    O2      O    0.21128   0.96435   0.66107   1.000
    O2      O    0.16107   0.78872   0.53565   1.000
    O2      O    0.21128   0.16107   0.46435   1.000
    O2      O    0.21128   0.03565   0.33893   1.000
    O2      O    0.03565   0.21128   0.33893   1.000
    O2      O    0.16107   0.21128   0.46435   1.000
    O2      O    0.96435   0.21128   0.66107   1.000
    O2      O    0.83893   0.21128   0.53565   1.000
    O2      O    0.83893   0.03565   0.71128   1.000
    O2      O    0.96435   0.16107   0.71128   1.000
    O2      O    0.16107   0.96435   0.71128   1.000
    O2      O    0.03565   0.83893   0.71128   1.000
    O2      O    0.83893   0.53565   0.21128   1.000
    O2      O    0.78872   0.66107   0.03565   1.000
    O2      O    0.78872   0.53565   0.16107   1.000
    O2      O    0.96435   0.66107   0.21128   1.000
    O2      O    0.03565   0.71128   0.83893   1.000
    O2      O    0.16107   0.71128   0.96435   1.000
    O2      O    0.96435   0.71128   0.16107   1.000
    O2      O    0.83893   0.71128   0.03565   1.000
    O2      O    0.16107   0.46435   0.21128   1.000
    O2      O    0.03565   0.33893   0.21128   1.000
    O2      O    0.21128   0.33893   0.03565   1.000
    O2      O    0.21128   0.46435   0.16107   1.000
    O2      O    0.21128   0.66107   0.96435   1.000
    O2      O    0.21128   0.53565   0.83893   1.000
    O2      O    0.33893   0.53565   0.71128   1.000
    O2      O    0.28872   0.66107   0.53565   1.000
    O2      O    0.28872   0.53565   0.66107   1.000
    O2      O    0.46435   0.66107   0.71128   1.000
    O2      O    0.53565   0.71128   0.33893   1.000
    O2      O    0.66107   0.53565   0.28872   1.000
    O2      O    0.53565   0.66107   0.28872   1.000
    O2      O    0.66107   0.71128   0.46435   1.000
    O2      O    0.53565   0.28872   0.66107   1.000
    O2      O    0.71128   0.33893   0.53565   1.000
    O2      O    0.71128   0.46435   0.66107   1.000
    O2      O    0.66107   0.28872   0.53565   1.000
    O2      O    0.46435   0.71128   0.66107   1.000
    O2      O    0.33893   0.71128   0.53565   1.000
    O2      O    0.66107   0.46435   0.71128   1.000
    O2      O    0.53565   0.33893   0.71128   1.000
    O2      O    0.71128   0.66107   0.46435   1.000
    O2      O    0.71128   0.53565   0.33893   1.000
    O2      O    0.53565   0.78872   0.16107   1.000
    O2      O    0.66107   0.78872   0.03565   1.000
    O2      O    0.21128   0.83893   0.46435   1.000
    O2      O    0.21128   0.96435   0.33893   1.000
    O2      O    0.83893   0.46435   0.21128   1.000
    O2      O    0.96435   0.33893   0.21128   1.000
    O2      O    0.28872   0.16107   0.03565   1.000
    O2      O    0.28872   0.03565   0.16107   1.000
    O2      O    0.83893   0.96435   0.71128   1.000
    O2      O    0.96435   0.83893   0.71128   1.000
    O2      O    0.96435   0.71128   0.83893   1.000
    O2      O    0.83893   0.71128   0.96435   1.000
