data_Mo24_P1_PM
_symmetry_space_group_name_H-M   'P 1'
_cell_length_a 29.526000
_cell_length_b 29.749600
_cell_length_c 42.415800
_cell_angle_alpha 90.000000
_cell_angle_beta 90.473000
_cell_angle_gamma 90.000000
_symmetry_Int_Tables_number 1

loop_
_symmetry_equiv_pos_as_xyz
 'x, y, z'

loop_
_atom_site_label
_atom_site_fract_x
_atom_site_fract_y
_atom_site_fract_z
_atom_site_charge
Mo 0.348720 0.352210 0.360940 1.026946
Mo 0.310470 0.315030 0.327730 1.017804
Mo 0.636280 0.360690 0.350460 1.027671
Mo 0.670480 0.325480 0.314610 1.019192
Mo 0.508560 0.213560 0.500320 1.026009
Mo 0.511050 0.142560 0.500400 1.017071
Mo 0.339080 0.638510 0.360840 1.026609
Mo 0.298700 0.673140 0.327550 1.017240
Mo 0.626680 0.646730 0.349840 1.027458
Mo 0.658910 0.683700 0.313980 1.018013
Mo 0.786770 0.508570 0.489010 1.026312
Mo 0.858070 0.511520 0.486420 1.018272
O 0.408260 0.344870 0.334830 -0.430747
O 0.368260 0.306010 0.299350 -0.444105
O 0.572840 0.349690 0.328910 -0.423111
O 0.608980 0.312330 0.290890 -0.443166
C 0.405300 0.322400 0.309380 0.358926
C 0.489100 0.325700 0.304650 0.102493
H 0.490360 0.339910 0.324700 0.025785
C 0.447800 0.313800 0.291250 -0.169980
C 0.445400 0.293900 0.261570 0.133557
H 0.416810 0.285890 0.252750 -0.026423
C 0.484900 0.285700 0.244880 -0.277346
C 0.525700 0.296000 0.258920 0.140852
H 0.552910 0.288900 0.248210 -0.024007
C 0.528400 0.316600 0.288410 -0.178211
C 0.572400 0.326700 0.302990 0.353079
C 0.482800 0.266100 0.211690 0.603853
C 0.527000 0.267500 0.193400 -0.853735
H 0.520720 0.262350 0.170990 0.237507
H 0.547420 0.244030 0.201360 0.244307
H 0.541280 0.296980 0.196190 0.253091
C 0.467800 0.217200 0.215500 -0.857777
H 0.457890 0.205360 0.195060 0.245832
H 0.442730 0.215720 0.230460 0.263296
H 0.493290 0.199310 0.223520 0.252298
C 0.447400 0.290600 0.191500 -0.846616
H 0.442550 0.274060 0.171740 0.238254
H 0.458200 0.320990 0.186710 0.250383
H 0.418830 0.292460 0.202980 0.258110
O 0.366250 0.293180 0.385830 -0.429131
O 0.325480 0.254140 0.351040 -0.444305
O 0.456210 0.214130 0.466390 -0.431307
O 0.458450 0.139390 0.466290 -0.443601
C 0.351000 0.256100 0.375200 0.362477
C 0.394900 0.215300 0.415900 0.103444
H 0.408190 0.243090 0.422090 0.025223
C 0.363700 0.214500 0.392310 -0.172047
C 0.343300 0.174100 0.383600 0.116587
H 0.321160 0.173890 0.367220 -0.013048
C 0.355100 0.133900 0.398600 -0.239742
C 0.387900 0.135200 0.421800 0.113443
H 0.397220 0.108010 0.431600 -0.011344
C 0.407700 0.175800 0.431140 -0.171202
C 0.442900 0.176400 0.455710 0.362492
C 0.331800 0.087500 0.391300 0.546866
C 0.319400 0.061600 0.421340 -0.788586
H 0.291970 0.043870 0.417500 0.221746
H 0.314100 0.082890 0.438540 0.240592
H 0.344420 0.041440 0.427170 0.229711
C 0.364800 0.057000 0.373500 -0.812247
H 0.366070 0.027530 0.383760 0.232552
H 0.395070 0.070620 0.373810 0.249063
H 0.354470 0.053490 0.351650 0.235479
C 0.287100 0.094500 0.373500 -0.803651
H 0.269760 0.066370 0.373440 0.221594
H 0.293320 0.103460 0.351720 0.236251
H 0.269470 0.118060 0.383880 0.243160
O 0.333300 0.412980 0.338040 -0.430152
O 0.294300 0.374190 0.302590 -0.446525
O 0.328040 0.576680 0.337520 -0.440787
O 0.286560 0.613390 0.302310 -0.444263
C 0.308300 0.411500 0.313370 0.361269
C 0.305200 0.494400 0.312200 0.095201
H 0.316970 0.494940 0.333120 0.027177
C 0.297800 0.454100 0.297200 -0.164205
C 0.281600 0.453300 0.267000 0.091754
H 0.277270 0.425050 0.256940 -0.010697
C 0.270500 0.494300 0.249800 -0.207174
C 0.278700 0.534400 0.266100 0.102231
H 0.272810 0.562220 0.255980 -0.009896
C 0.295300 0.534400 0.296800 -0.166401
C 0.304100 0.577000 0.313500 0.372051
C 0.254700 0.487800 0.214700 0.519756
C 0.211700 0.458900 0.215800 -0.800840
H 0.196440 0.459710 0.195230 0.227600
H 0.191300 0.470800 0.231950 0.240819
H 0.219790 0.427840 0.221040 0.241815
C 0.290100 0.458400 0.197500 -0.749612
H 0.279120 0.451560 0.176160 0.209024
H 0.294680 0.430300 0.209170 0.227856
H 0.318860 0.474700 0.196260 0.225343
C 0.259000 0.534400 0.199700 -0.799214
H 0.257160 0.531540 0.176670 0.222761
H 0.288150 0.547710 0.205650 0.242955
H 0.234340 0.553650 0.207050 0.236164
O 0.643940 0.421730 0.326480 -0.427576
O 0.679180 0.384540 0.288160 -0.442910
O 0.638890 0.585770 0.326060 -0.429519
O 0.672360 0.624670 0.287890 -0.440889
C 0.664900 0.421000 0.300060 0.352922
C 0.662000 0.504000 0.298360 0.098804
H 0.649510 0.503600 0.318940 0.026655
C 0.672200 0.464600 0.283380 -0.169492
C 0.688900 0.464500 0.253360 0.124483
H 0.694750 0.436800 0.243050 -0.021346
C 0.697100 0.504500 0.238000 -0.240781
C 0.686400 0.544600 0.253300 0.124520
H 0.690700 0.572340 0.242620 -0.020176
C 0.670000 0.544500 0.283180 -0.168584
C 0.659900 0.587600 0.300030 0.356238
C 0.719300 0.504300 0.204600 0.529271
C 0.703500 0.546000 0.186300 -0.780230
H 0.718900 0.547060 0.165870 0.216405
H 0.710960 0.573110 0.198370 0.234824
H 0.670720 0.544480 0.182790 0.231751
C 0.709100 0.461600 0.185700 -0.785294
H 0.729320 0.460090 0.167500 0.217060
H 0.677570 0.462220 0.178320 0.231031
H 0.713940 0.435190 0.199090 0.238855
C 0.771400 0.507400 0.206100 -0.767261
H 0.783930 0.497860 0.185830 0.209252
H 0.782870 0.487790 0.222880 0.233481
H 0.780370 0.538500 0.210400 0.225710
O 0.697320 0.374280 0.374310 -0.424073
O 0.733580 0.336990 0.336630 -0.435461
O 0.783750 0.458880 0.453490 -0.425352
O 0.859060 0.461380 0.451060 -0.441281
C 0.734300 0.360100 0.362320 0.343066
C 0.778900 0.400900 0.402660 0.084017
H 0.751640 0.413860 0.410130 0.031159
C 0.777600 0.370600 0.378170 -0.150333
C 0.816600 0.349100 0.368500 0.077816
H 0.814490 0.327430 0.352100 -0.001056
C 0.858900 0.358000 0.381900 -0.190108
C 0.859100 0.390900 0.406300 0.081749
H 0.887080 0.398540 0.416140 -0.004877
C 0.819600 0.412400 0.416360 -0.154145
C 0.821400 0.445800 0.441600 0.353097
C 0.898300 0.322300 0.375060 0.496653
C 0.913000 0.342500 0.343400 -0.772283
H 0.928150 0.319380 0.330900 0.220210
H 0.933940 0.367500 0.347310 0.228610
H 0.886300 0.353510 0.331950 0.241649
C 0.932100 0.318700 0.402600 -0.767370
H 0.932480 0.287750 0.410570 0.217534
H 0.923040 0.339140 0.419530 0.235258
H 0.962460 0.326820 0.395340 0.213502
C 0.885600 0.273000 0.367300 -0.742601
H 0.908050 0.252750 0.376810 0.209325
H 0.885180 0.268790 0.344380 0.218867
H 0.855600 0.266270 0.375770 0.226890
O 0.687640 0.637720 0.374460 -0.429552
O 0.722310 0.676360 0.336640 -0.443259
O 0.779360 0.558690 0.454560 -0.432744
O 0.854740 0.562080 0.451660 -0.445557
C 0.723300 0.654900 0.362510 0.358130
C 0.769800 0.617600 0.403490 0.098464
H 0.743650 0.601760 0.410140 0.026538
C 0.767000 0.648400 0.379220 -0.169840
C 0.804200 0.674500 0.371200 0.122769
H 0.801330 0.696360 0.354950 -0.017996
C 0.845900 0.669100 0.386700 -0.260054
C 0.848200 0.635300 0.409300 0.130751
H 0.876530 0.629360 0.419170 -0.020643
C 0.811300 0.610100 0.418020 -0.168407
C 0.815500 0.574600 0.443150 0.360494
C 0.888300 0.691300 0.373810 0.558342
C 0.905700 0.666800 0.344000 -0.788075
H 0.919260 0.688760 0.329690 0.224487
H 0.880350 0.651730 0.333400 0.242568
H 0.928540 0.644500 0.350200 0.229796
C 0.928200 0.690900 0.396900 -0.809210
H 0.954730 0.704290 0.386910 0.224426
H 0.935020 0.659850 0.403050 0.235889
H 0.920340 0.708320 0.415740 0.237193
C 0.877800 0.739300 0.362800 -0.813486
H 0.906090 0.754580 0.357310 0.230353
H 0.862780 0.755800 0.379730 0.244184
H 0.857850 0.738240 0.344210 0.245699
O 0.292150 0.361810 0.389910 -0.426915
O 0.251200 0.321430 0.355310 -0.441650
O 0.214740 0.442030 0.475660 -0.424478
O 0.139180 0.438430 0.478500 -0.436862
C 0.255000 0.344300 0.380320 0.349428
C 0.215400 0.383100 0.424460 0.086513
H 0.242790 0.398000 0.429960 0.030448
C 0.214000 0.352300 0.400020 -0.152794
C 0.174200 0.329900 0.392500 0.102877
H 0.173640 0.309830 0.375090 -0.009898
C 0.134600 0.336400 0.410200 -0.233315
C 0.136800 0.368500 0.434200 0.110993
H 0.110540 0.374570 0.446320 -0.013274
C 0.176200 0.391600 0.440550 -0.156387
C 0.176900 0.425300 0.466800 0.343442
C 0.090800 0.312500 0.398980 0.534779
C 0.069400 0.334400 0.369600 -0.771502
H 0.036300 0.333250 0.371160 0.216338
H 0.078960 0.318130 0.350680 0.217729
H 0.079210 0.365800 0.368170 0.235249
C 0.056100 0.313600 0.425600 -0.800876
H 0.027520 0.300440 0.418120 0.224905
H 0.050880 0.344870 0.431970 0.242419
H 0.067560 0.296410 0.443620 0.240828
C 0.099400 0.263400 0.389300 -0.781625
H 0.070390 0.248740 0.384570 0.218168
H 0.114720 0.247540 0.406520 0.234682
H 0.118440 0.262810 0.370460 0.227663
O 0.627410 0.302200 0.377400 -0.429376
O 0.664170 0.264580 0.339980 -0.441870
O 0.556100 0.217250 0.463570 -0.429965
O 0.559450 0.142260 0.463580 -0.438785
C 0.643500 0.266000 0.366240 0.355389
C 0.609600 0.222200 0.410590 0.100814
H 0.594480 0.248720 0.417270 0.025551
C 0.638400 0.223300 0.384520 -0.167007
C 0.661900 0.185500 0.375700 0.124182
H 0.681340 0.186830 0.357990 -0.020654
C 0.657600 0.144900 0.392500 -0.263448
C 0.628100 0.144900 0.417200 0.137850
H 0.624170 0.117790 0.428740 -0.021524
C 0.603600 0.182600 0.426260 -0.177319
C 0.571300 0.180500 0.452650 0.359094
C 0.683400 0.103100 0.380800 0.582539
C 0.665300 0.089300 0.348100 -0.821041
H 0.684730 0.065840 0.339310 0.233749
H 0.665290 0.115530 0.334110 0.247922
H 0.634340 0.077840 0.350070 0.244761
C 0.733000 0.115800 0.376000 -0.835019
H 0.750810 0.088530 0.372140 0.233195
H 0.744590 0.130850 0.394990 0.249844
H 0.735520 0.136050 0.357920 0.251599
C 0.678600 0.062200 0.402100 -0.843975
H 0.694410 0.036560 0.392670 0.232372
H 0.646430 0.054820 0.404420 0.250546
H 0.691830 0.068820 0.422800 0.250764
O 0.560730 0.217160 0.534360 -0.430714
O 0.563280 0.142270 0.534240 -0.442833
O 0.647640 0.302150 0.613920 -0.427248
O 0.690810 0.265190 0.648770 -0.436463
C 0.577200 0.180510 0.544640 0.360329
C 0.623100 0.222500 0.583940 0.106916
H 0.608030 0.249410 0.577810 0.023637
C 0.612900 0.181900 0.569140 -0.182175
C 0.635700 0.143500 0.578080 0.146594
H 0.628500 0.116110 0.567700 -0.028461
C 0.667900 0.143200 0.601100 -0.269377
C 0.678000 0.183800 0.616230 0.132934
H 0.700450 0.184650 0.632420 -0.020719
C 0.655200 0.223000 0.607530 -0.175554
C 0.664900 0.265500 0.624090 0.351183
C 0.687800 0.097900 0.611420 0.561825
C 0.699600 0.069300 0.582540 -0.805080
H 0.712350 0.040540 0.589510 0.225134
H 0.721930 0.085310 0.569730 0.239144
H 0.672200 0.063920 0.569950 0.242772
C 0.655900 0.067900 0.631100 -0.795058
H 0.668130 0.037300 0.632010 0.222002
H 0.625810 0.067370 0.621230 0.238622
H 0.653690 0.080070 0.652490 0.232247
C 0.730700 0.104800 0.631000 -0.818114
H 0.744170 0.075540 0.636030 0.228634
H 0.723150 0.120480 0.650610 0.242915
H 0.752320 0.122840 0.619020 0.244674
O 0.398410 0.649980 0.334800 -0.434209
O 0.356130 0.685970 0.299260 -0.441626
O 0.563010 0.653940 0.328360 -0.428398
O 0.596510 0.692350 0.289690 -0.442923
C 0.394500 0.671800 0.309570 0.364520
C 0.477600 0.673200 0.304140 0.105959
H 0.479720 0.660010 0.324510 0.024573
C 0.435700 0.681600 0.290730 -0.178807
C 0.432400 0.700500 0.260850 0.144256
H 0.403330 0.706580 0.252030 -0.029515
C 0.470800 0.710700 0.243760 -0.285039
C 0.513300 0.703200 0.257910 0.139797
H 0.540030 0.711410 0.247030 -0.024328
C 0.516600 0.684000 0.287670 -0.178062
C 0.561200 0.676500 0.302500 0.356824
C 0.466700 0.729400 0.211030 0.609345
C 0.435500 0.699700 0.191100 -0.864100
H 0.429460 0.714360 0.170800 0.245077
H 0.406880 0.695120 0.202200 0.261459
H 0.450090 0.670600 0.187510 0.256147
C 0.448100 0.777400 0.213400 -0.855370
H 0.442670 0.789290 0.192130 0.240870
H 0.470140 0.796460 0.224420 0.256359
H 0.419610 0.777040 0.225050 0.260577
C 0.511900 0.732600 0.193800 -0.840815
H 0.506940 0.745590 0.172770 0.235849
H 0.525030 0.702510 0.191640 0.248093
H 0.532800 0.751810 0.205790 0.247091
O 0.282700 0.624450 0.389360 -0.430624
O 0.239850 0.661120 0.354460 -0.447018
O 0.210840 0.540830 0.475460 -0.429709
O 0.135660 0.538450 0.478370 -0.447909
C 0.244600 0.638200 0.379210 0.362646
C 0.207300 0.598200 0.423470 0.099876
H 0.236140 0.586900 0.429710 0.026311
C 0.203300 0.626600 0.398390 -0.168944
C 0.161600 0.644100 0.389390 0.131044
H 0.159540 0.663570 0.371670 -0.020890
C 0.123100 0.633400 0.406100 -0.261848
C 0.127000 0.603500 0.431330 0.127727
H 0.100650 0.595170 0.442680 -0.022631
C 0.168100 0.586000 0.439960 -0.172482
C 0.171520 0.553300 0.466300 0.364160
C 0.075300 0.650300 0.397170 0.587999
C 0.075300 0.678000 0.366900 -0.845636
H 0.044400 0.679780 0.358340 0.232378
H 0.095050 0.663650 0.351390 0.251293
H 0.086430 0.708370 0.371440 0.243691
C 0.056200 0.677200 0.424900 -0.842718
H 0.027920 0.691920 0.418330 0.238047
H 0.078210 0.700020 0.431510 0.251781
H 0.050130 0.656850 0.442520 0.254697
C 0.043700 0.609900 0.392500 -0.843410
H 0.013270 0.617630 0.399880 0.243345
H 0.055290 0.584240 0.404540 0.261829
H 0.042220 0.602110 0.370060 0.248310
O 0.614020 0.705500 0.376250 -0.432760
O 0.648310 0.744150 0.338560 -0.444588
O 0.538680 0.785210 0.462740 -0.423797
O 0.537280 0.860420 0.462790 -0.439261
C 0.627900 0.741700 0.365010 0.359633
C 0.591600 0.783700 0.409120 0.087360
H 0.577180 0.756600 0.415240 0.030308
C 0.620600 0.784200 0.383660 -0.155168
C 0.643600 0.823000 0.376100 0.102368
H 0.663210 0.822770 0.358430 -0.014550
C 0.638900 0.862300 0.393300 -0.214893
C 0.607200 0.862100 0.417900 0.098522
H 0.601540 0.888790 0.429500 -0.012728
C 0.584000 0.822600 0.425390 -0.153377
C 0.551500 0.823400 0.451980 0.348774
C 0.666500 0.904900 0.383650 0.519297
C 0.716000 0.890400 0.378100 -0.748690
H 0.733810 0.916460 0.371470 0.208606
H 0.716810 0.867340 0.361560 0.227937
H 0.728800 0.878080 0.397650 0.224225
C 0.648900 0.918300 0.350700 -0.784754
H 0.670790 0.938270 0.340590 0.221236
H 0.619790 0.933870 0.352690 0.232314
H 0.644770 0.891230 0.337770 0.240522
C 0.668800 0.937000 0.411800 -0.797432
H 0.679830 0.966420 0.404770 0.222700
H 0.689450 0.924870 0.427840 0.238018
H 0.638490 0.940440 0.420770 0.241653
Mo 0.651280 0.647790 0.639060 1.026946
Mo 0.689530 0.684970 0.672270 1.017803
Mo 0.363720 0.639310 0.649540 1.027671
Mo 0.329520 0.674520 0.685390 1.019193
Mo 0.491440 0.786440 0.499680 1.026010
Mo 0.488950 0.857440 0.499600 1.017071
Mo 0.660920 0.361490 0.639160 1.026609
Mo 0.701300 0.326860 0.672450 1.017240
Mo 0.373320 0.353270 0.650160 1.027459
Mo 0.341090 0.316300 0.686020 1.018013
Mo 0.213230 0.491430 0.510990 1.026312
Mo 0.141930 0.488480 0.513580 1.018272
O 0.591740 0.655130 0.665170 -0.430749
O 0.631740 0.693990 0.700650 -0.444108
O 0.427160 0.650310 0.671090 -0.423114
O 0.391020 0.687670 0.709110 -0.443167
C 0.594700 0.677600 0.690620 0.358934
C 0.510900 0.674300 0.695350 0.102515
H 0.509640 0.660090 0.675300 0.025778
C 0.552200 0.686200 0.708750 -0.170005
C 0.554600 0.706100 0.738430 0.133602
H 0.583190 0.714110 0.747250 -0.026442
C 0.515100 0.714300 0.755120 -0.277425
C 0.474300 0.704000 0.741080 0.140894
H 0.447090 0.711100 0.751790 -0.024026
C 0.471600 0.683400 0.711590 -0.178235
C 0.427600 0.673300 0.697010 0.353086
C 0.517200 0.733900 0.788310 0.604009
C 0.473000 0.732500 0.806600 -0.854162
H 0.479290 0.737650 0.829010 0.237613
H 0.452580 0.755970 0.798640 0.244456
H 0.458730 0.703020 0.803810 0.253289
C 0.532200 0.782800 0.784500 -0.857919
H 0.542110 0.794640 0.804940 0.245877
H 0.557270 0.784280 0.769540 0.263339
H 0.506710 0.800690 0.776480 0.252344
C 0.552600 0.709400 0.808500 -0.846754
H 0.557450 0.725940 0.828260 0.238289
H 0.541800 0.679010 0.813290 0.250412
H 0.581170 0.707540 0.797020 0.258148
O 0.633750 0.706820 0.614170 -0.429135
O 0.674520 0.745860 0.648960 -0.444310
O 0.543790 0.785870 0.533610 -0.431311
O 0.541550 0.860610 0.533710 -0.443607
C 0.649000 0.743900 0.624800 0.362494
C 0.605100 0.784700 0.584100 0.103487
H 0.591810 0.756910 0.577910 0.025209
C 0.636300 0.785500 0.607690 -0.172094
C 0.656700 0.825900 0.616400 0.116670
H 0.678840 0.826110 0.632780 -0.013080
C 0.644900 0.866100 0.601400 -0.239882
C 0.612100 0.864800 0.578200 0.113524
H 0.602780 0.891990 0.568400 -0.011378
C 0.592300 0.824200 0.568860 -0.171248
C 0.557100 0.823600 0.544290 0.362508
C 0.668200 0.912500 0.608700 0.547207
C 0.680600 0.938400 0.578660 -0.789380
H 0.708030 0.956130 0.582500 0.221963
H 0.685900 0.917110 0.561460 0.240815
H 0.655590 0.958560 0.572830 0.230038
C 0.635200 0.943000 0.626500 -0.812537
H 0.633930 0.972470 0.616240 0.232631
H 0.604930 0.929380 0.626190 0.249146
H 0.645530 0.946510 0.648350 0.235571
C 0.712900 0.905500 0.626500 -0.803944
H 0.730240 0.933630 0.626560 0.221686
H 0.706680 0.896540 0.648280 0.236341
H 0.730530 0.881940 0.616120 0.243247
O 0.666700 0.587020 0.661960 -0.430159
O 0.705700 0.625810 0.697410 -0.446537
O 0.671960 0.423320 0.662480 -0.440794
O 0.713440 0.386610 0.697690 -0.444273
C 0.691700 0.588500 0.686630 0.361291
C 0.694800 0.505600 0.687800 0.095259
H 0.683030 0.505060 0.666880 0.027158
C 0.702200 0.545900 0.702800 -0.164269
C 0.718400 0.546700 0.733000 0.091855
H 0.722730 0.574950 0.743060 -0.010746
C 0.729500 0.505700 0.750200 -0.207366
C 0.721300 0.465600 0.733900 0.102346
H 0.727190 0.437780 0.744020 -0.009940
C 0.704700 0.465600 0.703200 -0.166468
C 0.695900 0.423000 0.686500 0.372073
C 0.745300 0.512200 0.785300 0.520292
C 0.788300 0.541100 0.784200 -0.802009
H 0.803560 0.540290 0.804770 0.227901
H 0.808700 0.529200 0.768060 0.241281
H 0.780210 0.572160 0.778960 0.242148
C 0.709900 0.541600 0.802500 -0.750020
H 0.720880 0.548440 0.823840 0.209139
H 0.705320 0.569700 0.790830 0.227970
H 0.681140 0.525300 0.803740 0.225452
C 0.741000 0.465600 0.800300 -0.799878
H 0.742850 0.468460 0.823330 0.222916
H 0.711850 0.452290 0.794360 0.243193
H 0.765660 0.446350 0.792950 0.236342
O 0.356060 0.578270 0.673520 -0.427579
O 0.320820 0.615460 0.711840 -0.442912
O 0.361110 0.414230 0.673940 -0.429523
O 0.327640 0.375330 0.712110 -0.440893
C 0.335100 0.579000 0.699940 0.352932
C 0.338000 0.496000 0.701640 0.098839
H 0.350490 0.496400 0.681060 0.026643
C 0.327800 0.535400 0.716620 -0.169525
C 0.311100 0.535500 0.746640 0.124531
H 0.305250 0.563200 0.756950 -0.021364
C 0.302900 0.495500 0.762000 -0.240858
C 0.313600 0.455400 0.746700 0.124604
H 0.309300 0.427670 0.757380 -0.020224
C 0.330000 0.455500 0.716820 -0.168629
C 0.340100 0.412400 0.699970 0.356254
C 0.280700 0.495700 0.795400 0.529388
C 0.296500 0.454000 0.813700 -0.780313
H 0.281100 0.452940 0.834130 0.216410
H 0.289040 0.426890 0.801630 0.234835
H 0.329280 0.455520 0.817210 0.231769
C 0.290900 0.538400 0.814300 -0.785391
H 0.270680 0.539910 0.832500 0.217087
H 0.322430 0.537780 0.821680 0.231056
H 0.286060 0.564810 0.800910 0.238885
C 0.228600 0.492600 0.793900 -0.767592
H 0.216070 0.502140 0.814170 0.209348
H 0.217130 0.512210 0.777120 0.233580
H 0.219640 0.461500 0.789600 0.225845
O 0.302680 0.625720 0.625690 -0.424067
O 0.266420 0.663010 0.663370 -0.435450
O 0.216250 0.541120 0.546510 -0.425346
O 0.140940 0.538620 0.548940 -0.441273
C 0.265700 0.639900 0.637680 0.343044
C 0.221100 0.599100 0.597340 0.083957
H 0.248360 0.586140 0.589870 0.031179
C 0.222400 0.629400 0.621830 -0.150268
C 0.183400 0.650900 0.631500 0.077707
H 0.185510 0.672570 0.647900 -0.001003
C 0.141100 0.642000 0.618100 -0.189913
C 0.140900 0.609100 0.593700 0.081639
H 0.112920 0.601460 0.583860 -0.004831
C 0.180400 0.587600 0.583640 -0.154081
C 0.178600 0.554200 0.558400 0.353074
C 0.101700 0.677700 0.624940 0.496128
C 0.087000 0.657500 0.656600 -0.771837
H 0.071850 0.680620 0.669100 0.220089
H 0.066060 0.632500 0.652690 0.228478
H 0.113700 0.646490 0.668050 0.241522
C 0.067900 0.681300 0.597400 -0.766949
H 0.067520 0.712250 0.589430 0.217427
H 0.076960 0.660860 0.580470 0.235142
H 0.037540 0.673180 0.604660 0.213390
C 0.114400 0.727000 0.632700 -0.741214
H 0.091950 0.747250 0.623190 0.208943
H 0.114820 0.731210 0.655630 0.218280
H 0.144400 0.733730 0.624230 0.226506
O 0.312360 0.362280 0.625540 -0.429546
O 0.277690 0.323640 0.663360 -0.443246
O 0.220640 0.441310 0.545440 -0.432738
O 0.145260 0.437920 0.548340 -0.445552
C 0.276700 0.345100 0.637490 0.358104
C 0.230200 0.382400 0.596510 0.098395
H 0.256350 0.398240 0.589860 0.026560
C 0.233000 0.351600 0.620780 -0.169764
C 0.195800 0.325500 0.628800 0.122641
H 0.198670 0.303640 0.645050 -0.017919
C 0.154100 0.330900 0.613300 -0.259825
C 0.151800 0.364700 0.590700 0.130614
H 0.123470 0.370640 0.580830 -0.020595
C 0.188700 0.389900 0.581980 -0.168331
C 0.184500 0.425400 0.556850 0.360468
C 0.111700 0.308700 0.626190 0.557856
C 0.094300 0.333200 0.656000 -0.787332
H 0.080740 0.311240 0.670310 0.224285
H 0.119650 0.348280 0.666600 0.242295
H 0.071460 0.355500 0.649800 0.229563
C 0.071800 0.309100 0.603100 -0.809730
H 0.045280 0.295710 0.613090 0.224694
H 0.064980 0.340150 0.596960 0.236099
H 0.079660 0.291680 0.584260 0.237346
C 0.122200 0.260700 0.637200 -0.811777
H 0.093910 0.245420 0.642690 0.229866
H 0.137220 0.244200 0.620270 0.243706
H 0.142160 0.261760 0.655800 0.244961
O 0.707850 0.638190 0.610090 -0.426914
O 0.748800 0.678570 0.644690 -0.441653
O 0.785260 0.557970 0.524340 -0.424477
O 0.860820 0.561570 0.521500 -0.436859
C 0.745000 0.655700 0.619680 0.349425
C 0.784600 0.616900 0.575540 0.086505
H 0.757210 0.602000 0.570040 0.030450
C 0.786000 0.647700 0.599980 -0.152787
C 0.825800 0.670100 0.607500 0.102861
H 0.826360 0.690170 0.624910 -0.009892
C 0.865400 0.663600 0.589800 -0.233285
C 0.863200 0.631500 0.565800 0.110978
H 0.889460 0.625430 0.553680 -0.013262
C 0.823800 0.608400 0.559450 -0.156378
C 0.823100 0.574700 0.533200 0.343439
C 0.909200 0.687500 0.601020 0.534739
C 0.930600 0.665600 0.630400 -0.772054
H 0.963700 0.666750 0.628850 0.216514
H 0.921040 0.681870 0.649320 0.217842
H 0.920790 0.634210 0.631840 0.235518
C 0.943900 0.686400 0.574400 -0.800403
H 0.972490 0.699560 0.581880 0.224646
H 0.949120 0.655130 0.568030 0.242292
H 0.932450 0.703590 0.556380 0.240748
C 0.900600 0.736600 0.610700 -0.781161
H 0.929610 0.751260 0.615430 0.218031
H 0.885280 0.752470 0.593480 0.234475
H 0.881560 0.737190 0.629540 0.227517
O 0.372590 0.697800 0.622600 -0.429375
O 0.335830 0.735420 0.660020 -0.441867
O 0.443900 0.782750 0.536430 -0.429965
O 0.440550 0.857740 0.536420 -0.438785
C 0.356500 0.734000 0.633760 0.355390
C 0.390400 0.777800 0.589410 0.100816
H 0.405520 0.751280 0.582730 0.025551
C 0.361600 0.776700 0.615480 -0.167007
C 0.338100 0.814500 0.624300 0.124186
H 0.318660 0.813170 0.642010 -0.020652
C 0.342400 0.855100 0.607500 -0.263455
C 0.371900 0.855100 0.582800 0.137856
H 0.375830 0.882210 0.571260 -0.021526
C 0.396400 0.817400 0.573740 -0.177321
C 0.428700 0.819500 0.547350 0.359095
C 0.316600 0.896900 0.619200 0.582560
C 0.334700 0.910700 0.651900 -0.821065
H 0.315270 0.934160 0.660690 0.233762
H 0.334710 0.884470 0.665890 0.247933
H 0.365660 0.922160 0.649930 0.244768
C 0.267000 0.884200 0.624000 -0.835060
H 0.249190 0.911470 0.627860 0.233222
H 0.255410 0.869150 0.605010 0.249863
H 0.264480 0.863950 0.642080 0.251620
C 0.321400 0.937800 0.597900 -0.843988
H 0.305590 0.963440 0.607330 0.232372
H 0.353570 0.945180 0.595580 0.250544
H 0.308170 0.931180 0.577200 0.250768
O 0.439270 0.782840 0.465640 -0.430713
O 0.436720 0.857730 0.465760 -0.442831
O 0.352360 0.697850 0.386080 -0.427248
O 0.309190 0.734810 0.351230 -0.436463
C 0.422800 0.819490 0.455360 0.360329
C 0.376900 0.777500 0.416060 0.106914
H 0.391970 0.750590 0.422190 0.023638
C 0.387100 0.818100 0.430860 -0.182171
C 0.364300 0.856500 0.421920 0.146593
H 0.371500 0.883890 0.432300 -0.028455
C 0.332100 0.856800 0.398900 -0.269367
C 0.322000 0.816200 0.383770 0.132930
H 0.299550 0.815350 0.367580 -0.020718
C 0.344800 0.777000 0.392470 -0.175551
C 0.335100 0.734500 0.375910 0.351182
C 0.312200 0.902100 0.388580 0.561826
C 0.300400 0.930700 0.417460 -0.805098
H 0.287650 0.959460 0.410490 0.225144
H 0.278070 0.914690 0.430270 0.239152
H 0.327800 0.936080 0.430050 0.242790
C 0.344100 0.932100 0.368900 -0.795059
H 0.331870 0.962690 0.367990 0.222143
H 0.374200 0.932630 0.378770 0.238493
H 0.346310 0.919930 0.347510 0.232227
C 0.269300 0.895200 0.369000 -0.818109
H 0.255830 0.924460 0.363970 0.228615
H 0.276850 0.879520 0.349390 0.242904
H 0.247680 0.877160 0.380980 0.244672
O 0.601590 0.350020 0.665200 -0.434221
O 0.643870 0.314030 0.700740 -0.441641
O 0.436990 0.346060 0.671640 -0.428410
O 0.403490 0.307650 0.710310 -0.442938
C 0.605500 0.328200 0.690430 0.364561
C 0.522400 0.326800 0.695860 0.106077
H 0.520280 0.339990 0.675490 0.024534
C 0.564300 0.318400 0.709270 -0.178931
C 0.567600 0.299500 0.739150 0.144468
H 0.596670 0.293420 0.747970 -0.029614
C 0.529200 0.289300 0.756240 -0.285401
C 0.486700 0.296800 0.742090 0.140051
H 0.459980 0.288590 0.752970 -0.024442
C 0.483400 0.316000 0.712330 -0.178199
C 0.438800 0.323500 0.697500 0.356872
C 0.533300 0.270600 0.788970 0.610075
C 0.564500 0.300300 0.808900 -0.865438
H 0.570540 0.285640 0.829200 0.245462
H 0.593110 0.304880 0.797800 0.261978
H 0.549910 0.329400 0.812490 0.256514
C 0.551900 0.222600 0.786600 -0.855996
H 0.557330 0.210710 0.807870 0.241054
H 0.529860 0.203540 0.775580 0.256539
H 0.580390 0.222960 0.774950 0.260756
C 0.488100 0.267400 0.806200 -0.841718
H 0.493060 0.254420 0.827230 0.236171
H 0.474970 0.297490 0.808360 0.248337
H 0.467200 0.248190 0.794210 0.247358
O 0.717300 0.375550 0.610640 -0.430625
O 0.760150 0.338880 0.645540 -0.447019
O 0.789160 0.459170 0.524540 -0.429710
O 0.864340 0.461550 0.521630 -0.447912
C 0.755400 0.361800 0.620790 0.362647
C 0.792700 0.401800 0.576530 0.099879
H 0.763860 0.413100 0.570290 0.026309
C 0.796700 0.373400 0.601610 -0.168950
C 0.838400 0.355900 0.610610 0.131051
H 0.840460 0.336430 0.628330 -0.020892
C 0.876900 0.366600 0.593900 -0.261865
C 0.873000 0.396500 0.568670 0.127735
H 0.899350 0.404830 0.557320 -0.022637
C 0.831900 0.414000 0.560040 -0.172489
C 0.828480 0.446700 0.533700 0.364161
C 0.924700 0.349700 0.602830 0.588038
C 0.924700 0.322000 0.633100 -0.845215
H 0.955600 0.320220 0.641670 0.232160
H 0.904950 0.336350 0.648610 0.251159
H 0.913570 0.291630 0.628560 0.243571
C 0.943800 0.322800 0.575100 -0.843215
H 0.972080 0.308080 0.581670 0.238177
H 0.921800 0.299980 0.568490 0.252016
H 0.949870 0.343150 0.557480 0.254834
C 0.956300 0.390100 0.607500 -0.843419
H 0.986730 0.382370 0.600120 0.243348
H 0.944710 0.415760 0.595460 0.261831
H 0.957780 0.397890 0.629940 0.248313
O 0.385980 0.294500 0.623750 -0.432761
O 0.351690 0.255850 0.661440 -0.444588
O 0.461320 0.214790 0.537260 -0.423798
O 0.462720 0.139580 0.537210 -0.439264
C 0.372100 0.258300 0.634990 0.359641
C 0.408400 0.216300 0.590880 0.087380
H 0.422820 0.243400 0.584760 0.030301
C 0.379400 0.215800 0.616340 -0.155188
C 0.356400 0.177000 0.623900 0.102407
H 0.336790 0.177230 0.641570 -0.014564
C 0.361100 0.137700 0.606700 -0.214958
C 0.392800 0.137900 0.582100 0.098562
H 0.398460 0.111210 0.570500 -0.012746
C 0.416000 0.177400 0.574610 -0.153398
C 0.448500 0.176600 0.548020 0.348782
C 0.333500 0.095100 0.616350 0.519464
C 0.284000 0.109600 0.621900 -0.748834
H 0.266190 0.083540 0.628530 0.208656
H 0.283190 0.132660 0.638440 0.227984
H 0.271200 0.121920 0.602350 0.224272
C 0.351100 0.081700 0.649300 -0.784909
H 0.329210 0.061730 0.659410 0.221285
H 0.380210 0.066130 0.647310 0.232356
H 0.355230 0.108770 0.662230 0.240567
C 0.331200 0.063000 0.588200 -0.797822
H 0.320180 0.033580 0.595230 0.222862
H 0.310550 0.075130 0.572160 0.238139
H 0.361510 0.059560 0.579230 0.241754
Mo 0.151280 0.852210 0.139060 1.026946
Mo 0.848720 0.147790 0.860940 1.026946
C 0.835100 0.921000 0.199940 0.352938
C 0.164900 0.079000 0.800060 0.352927
C 0.838000 0.004000 0.201640 0.098851
C 0.162000 0.996000 0.798360 0.098827
Mo 0.189530 0.815030 0.172270 1.017804
Mo 0.810470 0.184970 0.827730 1.017803
Mo 0.863720 0.860690 0.149540 1.027671
Mo 0.136280 0.139310 0.850460 1.027671
Mo 0.829520 0.825480 0.185390 1.019192
Mo 0.170480 0.174520 0.814610 1.019193
Mo 0.991440 0.713560 0.999680 1.026010
Mo 0.008560 0.286440 0.000320 1.026010
Mo 0.988950 0.642560 0.999600 1.017071
Mo 0.011050 0.357440 0.000400 1.017071
Mo 0.160920 0.138510 0.139160 1.026609
Mo 0.839080 0.861490 0.860840 1.026609
Mo 0.201300 0.173140 0.172450 1.017240
Mo 0.798700 0.826860 0.827550 1.017239
Mo 0.873320 0.146730 0.150160 1.027459
Mo 0.126680 0.853270 0.849840 1.027459
Mo 0.841090 0.183700 0.186020 1.018012
Mo 0.158910 0.816300 0.813980 1.018014
Mo 0.713230 0.008570 0.010990 1.026312
Mo 0.286770 0.991430 0.989010 1.026312
Mo 0.641930 0.011520 0.013580 1.018272
Mo 0.358070 0.988480 0.986420 1.018272
O 0.091740 0.844870 0.165170 -0.430749
O 0.908260 0.155130 0.834830 -0.430748
O 0.131740 0.806010 0.200650 -0.444107
O 0.868260 0.193990 0.799350 -0.444108
O 0.927160 0.849690 0.171090 -0.423113
O 0.072840 0.150310 0.828910 -0.423114
O 0.891020 0.812330 0.209110 -0.443168
O 0.108980 0.187670 0.790890 -0.443164
C 0.032200 0.717200 0.284500 -0.857926
C 0.967800 0.282800 0.715500 -0.858197
C 0.094700 0.822400 0.190620 0.358934
C 0.905300 0.177600 0.809380 0.358935
C 0.010900 0.825700 0.195350 0.102516
C 0.989100 0.174300 0.804650 0.102517
H 0.009640 0.839910 0.175300 0.025778
H 0.990370 0.160090 0.824700 0.025778
C 0.052200 0.813800 0.208750 -0.170005
C 0.947800 0.186200 0.791250 -0.170005
C 0.054600 0.793900 0.238430 0.133603
C 0.945400 0.206100 0.761570 0.133605
H 0.083190 0.785890 0.247250 -0.026441
H 0.916810 0.214110 0.752750 -0.026443
C 0.015100 0.785700 0.255120 -0.277427
C 0.984900 0.214300 0.744880 -0.277431
C 0.974300 0.796000 0.241080 0.140895
C 0.025700 0.204000 0.758920 0.140902
H 0.947090 0.788900 0.251790 -0.024027
H 0.052910 0.211100 0.748210 -0.024021
C 0.971600 0.816600 0.211590 -0.178235
C 0.028400 0.183400 0.788410 -0.178237
C 0.927600 0.826700 0.197010 0.353087
C 0.072400 0.173300 0.802990 0.353087
C 0.017200 0.766100 0.288310 0.604015
C 0.982800 0.233900 0.711690 0.604057
C 0.973000 0.767500 0.306600 -0.854167
C 0.027000 0.232500 0.693400 -0.853957
H 0.979290 0.762350 0.329010 0.237616
H 0.020720 0.237650 0.670990 0.237593
H 0.952580 0.744030 0.298640 0.244457
H 0.047420 0.255970 0.701360 0.244400
H 0.958730 0.796980 0.303810 0.253291
H 0.041280 0.203020 0.696190 0.253169
C 0.212900 0.594500 0.126500 -0.803684
C 0.787100 0.405500 0.873500 -0.803627
H 0.042110 0.705360 0.304940 0.245881
H 0.957900 0.294640 0.695060 0.246007
H 0.057270 0.715720 0.269540 0.263342
H 0.942730 0.284280 0.730460 0.263427
H 0.006710 0.699310 0.276480 0.252346
H 0.993290 0.300690 0.723520 0.252416
C 0.052600 0.790600 0.308500 -0.846761
C 0.947400 0.209400 0.691500 -0.846797
H 0.057450 0.774060 0.328260 0.238293
H 0.942550 0.225940 0.671740 0.238311
H 0.041800 0.820990 0.313290 0.250415
H 0.958200 0.179010 0.686710 0.250436
H 0.081170 0.792460 0.297020 0.258151
H 0.918830 0.207540 0.702980 0.258165
O 0.133750 0.793180 0.114170 -0.429131
O 0.866250 0.206820 0.885830 -0.429131
O 0.174520 0.754140 0.148960 -0.444304
O 0.825480 0.245860 0.851040 -0.444305
O 0.043790 0.714130 0.033610 -0.431307
O 0.956210 0.285870 0.966390 -0.431306
O 0.041550 0.639390 0.033710 -0.443601
O 0.958450 0.360610 0.966290 -0.443601
C 0.149000 0.756100 0.124800 0.362478
C 0.851000 0.243900 0.875200 0.362477
C 0.105100 0.715300 0.084100 0.103446
C 0.894900 0.284700 0.915900 0.103441
H 0.091810 0.743090 0.077910 0.025222
H 0.908190 0.256910 0.922090 0.025223
C 0.136300 0.714500 0.107690 -0.172049
C 0.863700 0.285500 0.892310 -0.172044
C 0.156700 0.674100 0.116400 0.116592
C 0.843300 0.325900 0.883600 0.116581
H 0.178840 0.673890 0.132780 -0.013048
H 0.821160 0.326110 0.867220 -0.013047
C 0.144900 0.633900 0.101400 -0.239750
C 0.855100 0.366100 0.898600 -0.239733
C 0.112100 0.635200 0.078200 0.113448
C 0.887900 0.364800 0.921800 0.113438
H 0.102780 0.608010 0.068400 -0.011346
H 0.897220 0.391990 0.931600 -0.011343
C 0.092300 0.675800 0.068860 -0.171205
C 0.907700 0.324200 0.931140 -0.171200
C 0.057100 0.676400 0.044290 0.362493
C 0.942900 0.323600 0.955710 0.362491
C 0.168200 0.587500 0.108700 0.546887
C 0.831800 0.412500 0.891300 0.546842
C 0.180600 0.561600 0.078660 -0.788601
C 0.819400 0.438400 0.921340 -0.788559
H 0.208030 0.543870 0.082500 0.221751
H 0.791970 0.456130 0.917500 0.221731
H 0.185900 0.582890 0.061460 0.240597
H 0.814100 0.417110 0.938540 0.240584
H 0.155580 0.541440 0.072830 0.229714
H 0.844420 0.458560 0.927170 0.229698
C 0.135200 0.557000 0.126500 -0.812274
C 0.864800 0.443000 0.873500 -0.812209
H 0.133930 0.527530 0.116240 0.232561
H 0.866070 0.472470 0.883760 0.232523
H 0.104930 0.570620 0.126190 0.249073
H 0.895070 0.429380 0.873810 0.249049
H 0.145530 0.553490 0.148350 0.235499
H 0.854470 0.446510 0.851650 0.235461
C 0.765700 0.860100 0.137680 0.343069
C 0.234300 0.139900 0.862320 0.343064
C 0.721100 0.900900 0.097340 0.084027
C 0.278900 0.099100 0.902660 0.084014
H 0.748360 0.913860 0.089870 0.031155
H 0.251640 0.086140 0.910130 0.031160
H 0.230240 0.566370 0.126560 0.221616
H 0.769760 0.433630 0.873440 0.221583
H 0.206680 0.603460 0.148280 0.236271
H 0.793320 0.396540 0.851720 0.236243
H 0.230530 0.618060 0.116120 0.243172
H 0.769470 0.381940 0.883880 0.243153
O 0.166700 0.912980 0.161960 -0.430158
O 0.833300 0.087020 0.838040 -0.430152
O 0.205700 0.874190 0.197410 -0.446534
O 0.794300 0.125810 0.802590 -0.446525
O 0.171960 0.076680 0.162480 -0.440793
O 0.828040 0.923320 0.837520 -0.440787
O 0.213440 0.113390 0.197690 -0.444272
O 0.786560 0.886610 0.802310 -0.444265
C 0.191700 0.911500 0.186630 0.361292
C 0.808300 0.088500 0.813370 0.361269
C 0.194800 0.994400 0.187800 0.095261
C 0.805200 0.005600 0.812200 0.095198
H 0.183030 0.994940 0.166880 0.027158
H 0.816970 0.005060 0.833120 0.027178
C 0.202200 0.954100 0.202800 -0.164269
C 0.797800 0.045900 0.797200 -0.164202
C 0.218400 0.953300 0.233000 0.091859
C 0.781600 0.046700 0.767000 0.091749
H 0.222730 0.925050 0.243060 -0.010746
H 0.777270 0.074950 0.756940 -0.010695
C 0.229500 0.994300 0.250200 -0.207371
C 0.770500 0.005700 0.749800 -0.207166
C 0.221300 0.034400 0.233900 0.102350
C 0.778700 0.965600 0.766100 0.102225
H 0.227190 0.062220 0.244020 -0.009940
H 0.772810 0.937780 0.755980 -0.009896
C 0.204700 0.034400 0.203200 -0.166468
C 0.795300 0.965600 0.796800 -0.166399
C 0.195900 0.077000 0.186500 0.372074
C 0.804100 0.923000 0.813500 0.372050
C 0.245300 0.987800 0.285300 0.520311
C 0.754700 0.012200 0.714700 0.519731
C 0.288300 0.958900 0.284200 -0.802037
C 0.711700 0.041100 0.715800 -0.800818
H 0.303560 0.959710 0.304770 0.227918
H 0.696440 0.040290 0.695230 0.227592
H 0.308700 0.970800 0.268060 0.241294
H 0.691300 0.029200 0.731950 0.240811
H 0.280210 0.927840 0.278960 0.242160
H 0.719790 0.072160 0.721040 0.241810
C 0.209900 0.958400 0.302500 -0.750043
C 0.790100 0.041600 0.697500 -0.749597
H 0.220880 0.951560 0.323840 0.209152
H 0.779120 0.048440 0.676160 0.209027
H 0.205320 0.930300 0.290830 0.227979
H 0.794680 0.069700 0.709170 0.227854
H 0.181140 0.974700 0.303740 0.225462
H 0.818860 0.025300 0.696260 0.225341
C 0.241000 0.034400 0.300300 -0.799901
C 0.759000 0.965600 0.699700 -0.799150
H 0.242850 0.031540 0.323330 0.222926
H 0.757150 0.968460 0.676670 0.222731
H 0.211850 0.047710 0.294360 0.243203
H 0.788150 0.952290 0.705650 0.242944
H 0.265660 0.053650 0.292950 0.236351
H 0.734340 0.946350 0.707050 0.236133
O 0.856060 0.921730 0.173520 -0.427581
O 0.143940 0.078270 0.826480 -0.427576
O 0.820820 0.884540 0.211840 -0.442916
O 0.179180 0.115460 0.788160 -0.442909
O 0.861110 0.085770 0.173940 -0.429524
O 0.138890 0.914230 0.826060 -0.429520
O 0.827640 0.124670 0.212110 -0.440896
O 0.172360 0.875330 0.787890 -0.440889
H 0.420790 0.865800 0.131830 0.235190
H 0.579210 0.134200 0.868170 0.235097
C 0.443900 0.813600 0.074400 -0.800246
C 0.556100 0.186400 0.925600 -0.799702
H 0.472490 0.800440 0.081880 0.224586
H 0.527510 0.199560 0.918120 0.224448
H 0.449120 0.844870 0.068030 0.242236
H 0.550880 0.155130 0.931970 0.242083
H 0.850490 0.003600 0.181060 0.026639
H 0.149520 0.996400 0.818940 0.026641
C 0.827800 0.964600 0.216620 -0.169544
C 0.172200 0.035400 0.783380 -0.169508
C 0.811100 0.964500 0.246640 0.124570
C 0.188900 0.035500 0.753360 0.124504
H 0.805250 0.936800 0.256950 -0.021382
H 0.194750 0.063200 0.743050 -0.021351
C 0.802900 0.004500 0.262000 -0.240924
C 0.197100 0.995500 0.738000 -0.240811
C 0.813600 0.044600 0.246700 0.124607
C 0.186400 0.955400 0.753300 0.124578
H 0.809300 0.072340 0.257380 -0.020215
H 0.190700 0.927670 0.742620 -0.020209
C 0.830000 0.044500 0.216820 -0.168635
C 0.170000 0.955500 0.783180 -0.168613
C 0.840100 0.087600 0.199970 0.356255
C 0.159900 0.912400 0.800030 0.356249
C 0.780700 0.004300 0.295400 0.529591
C 0.219300 0.995700 0.704600 0.529294
C 0.796500 0.046000 0.313700 -0.780814
C 0.203500 0.954000 0.686300 -0.780254
H 0.781110 0.047060 0.334130 0.216633
H 0.218900 0.952940 0.665870 0.216413
H 0.789040 0.073110 0.301630 0.234985
H 0.210960 0.926890 0.698370 0.234834
H 0.829280 0.044480 0.317210 0.231903
H 0.170720 0.955520 0.682790 0.231760
C 0.790900 0.961600 0.314300 -0.785566
C 0.209100 0.038400 0.685700 -0.785319
H 0.770680 0.960090 0.332500 0.217136
H 0.229320 0.039910 0.667500 0.217069
H 0.822430 0.962220 0.321680 0.231104
H 0.177570 0.037780 0.678320 0.231041
H 0.786060 0.935190 0.300910 0.238934
H 0.213940 0.064810 0.699090 0.238866
C 0.728600 0.007400 0.293900 -0.767758
C 0.271400 0.992600 0.706100 -0.767280
H 0.716070 0.997860 0.314170 0.209399
H 0.283930 0.002140 0.685830 0.209257
H 0.717130 0.987790 0.277120 0.233625
H 0.282870 0.012210 0.722880 0.233486
H 0.719640 0.038500 0.289600 0.225896
H 0.280370 0.961500 0.710400 0.225716
O 0.802680 0.874280 0.125690 -0.424074
O 0.197320 0.125720 0.874310 -0.424072
O 0.766420 0.836990 0.163370 -0.435463
O 0.233580 0.163010 0.836630 -0.435461
O 0.716250 0.958880 0.046510 -0.425353
O 0.283750 0.041120 0.953490 -0.425352
O 0.640940 0.961380 0.048940 -0.441282
O 0.359060 0.038620 0.951060 -0.441280
C 0.844100 0.567900 0.868900 -0.795973
C 0.155900 0.432100 0.131100 -0.795171
H 0.831870 0.537310 0.867990 0.222404
H 0.168130 0.462700 0.132010 0.222042
H 0.874190 0.567370 0.878770 0.238873
H 0.125810 0.432630 0.121230 0.238659
H 0.846320 0.580070 0.847510 0.232473
H 0.153690 0.419930 0.152490 0.232284
C 0.769300 0.604800 0.869000 -0.818420
C 0.230700 0.395200 0.131000 -0.818363
C 0.722400 0.870600 0.121830 -0.150346
C 0.277600 0.129400 0.878170 -0.150331
C 0.683400 0.849100 0.131500 0.077833
C 0.316600 0.150900 0.868500 0.077809
H 0.685510 0.827430 0.147900 -0.001070
H 0.314490 0.172580 0.852100 -0.001052
C 0.641100 0.858000 0.118100 -0.190150
C 0.358900 0.142000 0.881900 -0.190107
C 0.640900 0.890900 0.093700 0.081770
C 0.359100 0.109100 0.906300 0.081748
H 0.612920 0.898540 0.083860 -0.004885
H 0.387080 0.101460 0.916140 -0.004875
C 0.680400 0.912400 0.083640 -0.154158
C 0.319600 0.087600 0.916360 -0.154144
C 0.678600 0.945800 0.058400 0.353101
C 0.321400 0.054200 0.941600 0.353096
C 0.601700 0.822300 0.124940 0.496745
C 0.398300 0.177700 0.875060 0.496658
C 0.587000 0.842500 0.156600 -0.772358
C 0.413000 0.157500 0.843400 -0.772281
H 0.571850 0.819380 0.169100 0.220231
H 0.428150 0.180620 0.830900 0.220202
H 0.566060 0.867500 0.152690 0.228632
H 0.433940 0.132500 0.847310 0.228611
H 0.613700 0.853510 0.168050 0.241669
H 0.386300 0.146490 0.831950 0.241646
C 0.567900 0.818700 0.097400 -0.767464
C 0.432100 0.181300 0.902600 -0.767399
H 0.567520 0.787750 0.089430 0.217565
H 0.432480 0.212250 0.910570 0.217551
H 0.576960 0.839140 0.080470 0.235287
H 0.423040 0.160860 0.919530 0.235272
H 0.537540 0.826820 0.104660 0.213542
H 0.462460 0.173180 0.895340 0.213532
C 0.614400 0.773000 0.132700 -0.742866
C 0.385600 0.227000 0.867300 -0.742597
H 0.591950 0.752750 0.123190 0.209410
H 0.408050 0.247250 0.876810 0.209319
H 0.614820 0.768790 0.155620 0.218945
H 0.385180 0.231210 0.844380 0.218860
H 0.644400 0.766280 0.124230 0.227000
H 0.355600 0.233730 0.875770 0.226886
O 0.812360 0.137720 0.125540 -0.429556
O 0.187640 0.862280 0.874460 -0.429552
O 0.777690 0.176360 0.163360 -0.443265
O 0.222310 0.823640 0.836640 -0.443258
O 0.720640 0.058690 0.045440 -0.432748
O 0.279360 0.941310 0.954560 -0.432744
O 0.645260 0.062080 0.048340 -0.445563
O 0.354740 0.937920 0.951660 -0.445557
C 0.776700 0.154900 0.137490 0.358144
C 0.223300 0.845100 0.862510 0.358129
C 0.730200 0.117600 0.096510 0.098502
C 0.269800 0.882400 0.903490 0.098463
H 0.756350 0.101760 0.089860 0.026525
H 0.243650 0.898240 0.910140 0.026538
C 0.733000 0.148400 0.120780 -0.169881
C 0.267000 0.851600 0.879220 -0.169839
C 0.695800 0.174500 0.128800 0.122841
C 0.304200 0.825500 0.871200 0.122768
H 0.698670 0.196360 0.145050 -0.018025
H 0.301330 0.803640 0.854950 -0.017995
C 0.654100 0.169100 0.113300 -0.260182
C 0.345900 0.830900 0.886700 -0.260053
C 0.651800 0.135300 0.090700 0.130827
C 0.348200 0.864700 0.909300 0.130750
H 0.623470 0.129360 0.080830 -0.020674
H 0.376530 0.870640 0.919170 -0.020643
C 0.688700 0.110100 0.081980 -0.168450
C 0.311300 0.889900 0.918020 -0.168406
C 0.684500 0.074600 0.056850 0.360509
C 0.315500 0.925400 0.943150 0.360494
C 0.611700 0.191300 0.126190 0.558630
C 0.388300 0.808700 0.873810 0.558339
C 0.594300 0.166800 0.156000 -0.788810
C 0.405700 0.833200 0.844000 -0.788072
H 0.580740 0.188760 0.170310 0.224690
H 0.419260 0.811240 0.829690 0.224486
H 0.619650 0.151730 0.166600 0.242781
H 0.380350 0.848270 0.833400 0.242568
H 0.571460 0.144510 0.149800 0.230100
H 0.428540 0.855500 0.850200 0.229794
C 0.571800 0.190900 0.103100 -0.809448
C 0.428200 0.809100 0.896900 -0.809204
H 0.545270 0.204290 0.113090 0.224480
H 0.454730 0.795710 0.886910 0.224421
H 0.564980 0.159850 0.096950 0.235944
H 0.435020 0.840150 0.903050 0.235886
H 0.579660 0.208320 0.084260 0.237256
H 0.420340 0.791680 0.915740 0.237190
C 0.622200 0.239300 0.137200 -0.813717
C 0.377800 0.760700 0.862800 -0.813483
H 0.593910 0.254580 0.142690 0.230414
H 0.406090 0.745420 0.857310 0.230353
H 0.637220 0.255800 0.120270 0.244248
H 0.362780 0.744200 0.879730 0.244183
H 0.642150 0.238240 0.155790 0.245767
H 0.357850 0.761760 0.844210 0.245699
O 0.207850 0.861810 0.110090 -0.426912
O 0.792150 0.138190 0.889910 -0.426908
O 0.248800 0.821430 0.144690 -0.441647
O 0.751200 0.178570 0.855310 -0.441643
O 0.285260 0.942030 0.024340 -0.424475
O 0.714740 0.057970 0.975660 -0.424470
O 0.360820 0.938430 0.021500 -0.436857
O 0.639180 0.061570 0.978500 -0.436851
C 0.245000 0.844300 0.119680 0.349417
C 0.755000 0.155700 0.880320 0.349400
C 0.284600 0.883100 0.075540 0.086482
C 0.715400 0.116900 0.924460 0.086433
H 0.257210 0.898000 0.070040 0.030458
H 0.742790 0.102000 0.929960 0.030473
C 0.286000 0.852300 0.099980 -0.152762
C 0.714000 0.147700 0.900020 -0.152713
C 0.325800 0.829900 0.107500 0.102820
C 0.674200 0.170100 0.892500 0.102731
H 0.326360 0.809830 0.124910 -0.009875
H 0.673640 0.190170 0.875090 -0.009840
C 0.365400 0.836400 0.089800 -0.233214
C 0.634600 0.163600 0.910200 -0.233060
C 0.363200 0.868500 0.065800 0.110933
C 0.636800 0.131500 0.934200 0.110836
H 0.389460 0.874570 0.053680 -0.013246
H 0.610540 0.125430 0.946320 -0.013208
C 0.323800 0.891600 0.059450 -0.156353
C 0.676200 0.108400 0.940550 -0.156299
C 0.323100 0.925300 0.033200 0.343430
C 0.676900 0.074700 0.966800 0.343413
C 0.409200 0.812500 0.101020 0.534544
C 0.590800 0.187500 0.898980 0.534163
C 0.430600 0.834400 0.130400 -0.771299
C 0.569400 0.165600 0.869600 -0.770968
H 0.463700 0.833250 0.128840 0.216287
H 0.536300 0.166750 0.871160 0.216192
H 0.421040 0.818130 0.149320 0.217671
H 0.578960 0.181870 0.850680 0.217567
H 0.432450 0.796410 0.056380 0.240698
H 0.567560 0.203590 0.943620 0.240499
C 0.400600 0.763400 0.110700 -0.781425
C 0.599400 0.236600 0.889300 -0.780727
H 0.429610 0.748740 0.115430 0.218120
H 0.570390 0.251270 0.884570 0.217833
H 0.385280 0.747540 0.093480 0.234630
H 0.614720 0.252460 0.906520 0.234420
H 0.381560 0.762810 0.129540 0.227607
H 0.618440 0.237190 0.870460 0.227394
O 0.872590 0.802200 0.122600 -0.429376
O 0.127410 0.197800 0.877400 -0.429378
O 0.835830 0.764580 0.160020 -0.441870
O 0.164170 0.235420 0.839980 -0.441875
O 0.943900 0.717250 0.036430 -0.429966
O 0.056100 0.282750 0.963570 -0.429969
O 0.940550 0.642260 0.036420 -0.438785
O 0.059450 0.357740 0.963580 -0.438790
C 0.856500 0.766000 0.133760 0.355389
C 0.143500 0.234000 0.866240 0.355405
C 0.890400 0.722200 0.089410 0.100816
C 0.109600 0.277800 0.910590 0.100865
H 0.905520 0.748720 0.082730 0.025551
H 0.094480 0.251290 0.917270 0.025524
C 0.861600 0.723300 0.115480 -0.167008
C 0.138400 0.276700 0.884520 -0.167054
C 0.838100 0.685500 0.124300 0.124185
C 0.161900 0.314500 0.875700 0.124265
H 0.818660 0.686830 0.142010 -0.020655
H 0.181340 0.313170 0.857990 -0.020690
C 0.842400 0.644900 0.107500 -0.263454
C 0.157600 0.355100 0.892500 -0.263592
C 0.871900 0.644900 0.082800 0.137854
C 0.128100 0.355100 0.917200 0.137940
H 0.875830 0.617790 0.071260 -0.021526
H 0.124170 0.382210 0.928740 -0.021558
C 0.896400 0.682600 0.073740 -0.177321
C 0.103600 0.317400 0.926260 -0.177371
C 0.928700 0.680500 0.047350 0.359094
C 0.071300 0.319500 0.952650 0.359112
C 0.816600 0.603100 0.119200 0.582553
C 0.183400 0.396900 0.880800 0.582870
C 0.834700 0.589300 0.151900 -0.821059
C 0.165300 0.410700 0.848100 -0.821317
H 0.815270 0.565840 0.160690 0.233761
H 0.184730 0.434160 0.839310 0.233827
H 0.834710 0.615530 0.165890 0.247931
H 0.165290 0.384470 0.834110 0.247997
H 0.865660 0.577840 0.149930 0.244767
H 0.134340 0.422160 0.850070 0.244839
C 0.767000 0.615800 0.124000 -0.835045
C 0.233000 0.384200 0.876000 -0.835791
H 0.749190 0.588530 0.127860 0.233216
H 0.250810 0.411470 0.872140 0.233413
H 0.755410 0.630850 0.105010 0.249853
H 0.244590 0.369150 0.894990 0.250069
H 0.764480 0.636050 0.142080 0.251611
H 0.235520 0.363960 0.857920 0.251916
C 0.821400 0.562200 0.097900 -0.843980
C 0.178600 0.437800 0.902100 -0.844265
H 0.805590 0.536560 0.107330 0.232369
H 0.194410 0.463440 0.892670 0.232455
H 0.853570 0.554820 0.095580 0.250542
H 0.146430 0.445180 0.904420 0.250628
H 0.808170 0.568820 0.077200 0.250764
H 0.191830 0.431180 0.922800 0.250848
O 0.939270 0.717160 0.965640 -0.430719
O 0.060730 0.282840 0.034360 -0.430715
O 0.936720 0.642270 0.965760 -0.442840
O 0.063280 0.357730 0.034240 -0.442834
O 0.852360 0.802150 0.886080 -0.427253
O 0.147640 0.197850 0.113920 -0.427250
O 0.809190 0.765190 0.851230 -0.436471
O 0.190810 0.234810 0.148770 -0.436466
C 0.922800 0.680510 0.955360 0.360350
C 0.077200 0.319490 0.044640 0.360336
C 0.876900 0.722500 0.916060 0.106970
C 0.123100 0.277500 0.083940 0.106935
H 0.891970 0.749410 0.922190 0.023619
H 0.108030 0.250590 0.077810 0.023631
C 0.887100 0.681900 0.930860 -0.182235
C 0.112900 0.318100 0.069140 -0.182194
C 0.864300 0.643500 0.921920 0.146701
C 0.135700 0.356500 0.078080 0.146631
H 0.871500 0.616110 0.932300 -0.028504
H 0.128500 0.383890 0.067700 -0.028475
C 0.832100 0.643200 0.898900 -0.269550
C 0.167900 0.356800 0.101100 -0.269435
C 0.822000 0.683800 0.883770 0.133036
C 0.178000 0.316200 0.116230 0.132971
H 0.799550 0.684650 0.867580 -0.020760
H 0.200450 0.315350 0.132420 -0.020734
C 0.844800 0.723000 0.892470 -0.175612
C 0.155200 0.277000 0.107530 -0.175574
C 0.835100 0.765500 0.875910 0.351203
C 0.164900 0.234500 0.124090 0.351190
C 0.812200 0.597900 0.888580 0.562205
C 0.187800 0.402100 0.111420 0.561960
C 0.800400 0.569300 0.917460 -0.805407
C 0.199600 0.430700 0.082540 -0.805205
H 0.787650 0.540540 0.910490 0.225227
H 0.212350 0.459460 0.089510 0.225182
H 0.778070 0.585310 0.930270 0.239236
H 0.221930 0.414690 0.069730 0.239181
H 0.827800 0.563920 0.930050 0.242874
H 0.172200 0.436080 0.069950 0.242816
H 0.755830 0.575540 0.863970 0.228707
H 0.244170 0.424460 0.136030 0.228701
H 0.776850 0.620480 0.849390 0.242997
H 0.223160 0.379520 0.150610 0.243016
H 0.747680 0.622840 0.880980 0.244758
H 0.252320 0.377160 0.119020 0.244736
O 0.101590 0.149980 0.165200 -0.434211
O 0.898410 0.850020 0.834800 -0.434217
O 0.143870 0.185970 0.200740 -0.441627
O 0.856130 0.814030 0.799260 -0.441638
O 0.936990 0.153940 0.171640 -0.428401
O 0.063010 0.846060 0.828360 -0.428406
O 0.903490 0.192350 0.210310 -0.442925
O 0.096510 0.807650 0.789690 -0.442930
C 0.105500 0.171800 0.190430 0.364524
C 0.894500 0.828200 0.809570 0.364550
C 0.022400 0.173200 0.195860 0.105978
C 0.977600 0.826800 0.804140 0.106045
H 0.020280 0.160010 0.175490 0.024567
H 0.979720 0.839990 0.824510 0.024545
C 0.064300 0.181600 0.209270 -0.178822
C 0.935700 0.818400 0.790730 -0.178897
C 0.067600 0.200500 0.239150 0.144274
C 0.932400 0.799500 0.760850 0.144407
H 0.096670 0.206580 0.247970 -0.029521
H 0.903330 0.793420 0.752030 -0.029590
C 0.029200 0.210700 0.256240 -0.285066
C 0.970800 0.789300 0.743760 -0.285298
C 0.986700 0.203200 0.242090 0.139857
C 0.013300 0.796800 0.757910 0.139989
H 0.959980 0.211410 0.252970 -0.024365
H 0.040020 0.788590 0.747030 -0.024413
C 0.983400 0.184000 0.212330 -0.178091
C 0.016600 0.816000 0.787670 -0.178163
C 0.938800 0.176500 0.197500 0.356834
C 0.061200 0.823500 0.802500 0.356860
C 0.033300 0.229400 0.288970 0.609356
C 0.966700 0.770600 0.711030 0.609850
C 0.064500 0.199700 0.308900 -0.864102
C 0.935500 0.800300 0.691100 -0.865244
H 0.070540 0.214360 0.329200 0.245073
H 0.929460 0.785640 0.670800 0.245404
H 0.093120 0.195120 0.297800 0.261457
H 0.906890 0.804880 0.702200 0.261922
H 0.049910 0.170600 0.312490 0.256145
H 0.950090 0.829400 0.687510 0.256466
C 0.051900 0.277400 0.286600 -0.855378
C 0.948100 0.722600 0.713400 -0.855778
H 0.057330 0.289290 0.307870 0.240869
H 0.942670 0.710710 0.692130 0.240967
H 0.029860 0.296460 0.275580 0.256363
H 0.970140 0.703540 0.724420 0.256470
H 0.080390 0.277040 0.274950 0.260581
H 0.919610 0.722960 0.725050 0.260686
C 0.988100 0.232600 0.306200 -0.840822
C 0.011900 0.767400 0.693800 -0.841249
H 0.993060 0.245590 0.327230 0.235848
H 0.006940 0.754410 0.672770 0.235981
H 0.974970 0.202510 0.308360 0.248095
H 0.025030 0.797490 0.691640 0.248228
H 0.967200 0.251810 0.294210 0.247096
H 0.032800 0.748190 0.705790 0.247229
O 0.217300 0.124450 0.110640 -0.430628
O 0.782700 0.875550 0.889360 -0.430625
O 0.260150 0.161120 0.145540 -0.447024
O 0.739850 0.838880 0.854460 -0.447021
O 0.289160 0.040830 0.024540 -0.429714
O 0.710840 0.959170 0.975460 -0.429711
O 0.364340 0.038450 0.021630 -0.447916
O 0.635660 0.961550 0.978370 -0.447912
C 0.255400 0.138200 0.120790 0.362660
C 0.744600 0.861800 0.879210 0.362651
C 0.292700 0.098200 0.076530 0.099916
C 0.707300 0.901800 0.923470 0.099890
H 0.263860 0.086900 0.070290 0.026297
H 0.736140 0.913100 0.929710 0.026306
C 0.296700 0.126600 0.101610 -0.168990
C 0.703300 0.873400 0.898390 -0.168961
C 0.338400 0.144100 0.110610 0.131125
C 0.661600 0.855900 0.889390 0.131074
H 0.340460 0.163570 0.128330 -0.020923
H 0.659540 0.836430 0.871670 -0.020902
C 0.376900 0.133400 0.093900 -0.261983
C 0.623100 0.866600 0.906100 -0.261900
C 0.373000 0.103500 0.068670 0.127805
C 0.627000 0.896500 0.931330 0.127753
H 0.399350 0.095170 0.057320 -0.022666
H 0.600650 0.904830 0.942680 -0.022649
C 0.331900 0.086000 0.060040 -0.172527
C 0.668100 0.914000 0.939960 -0.172499
C 0.328480 0.053300 0.033700 0.364175
C 0.671520 0.946700 0.966300 0.364165
C 0.424700 0.150300 0.102830 0.588315
C 0.575300 0.849700 0.897170 0.588102
C 0.424700 0.178000 0.133100 -0.845908
C 0.575300 0.822000 0.866900 -0.845724
H 0.455600 0.179780 0.141660 0.232451
H 0.544400 0.820220 0.858340 0.232403
H 0.404950 0.163650 0.148610 0.251369
H 0.595050 0.836350 0.851390 0.251318
H 0.413570 0.208370 0.128560 0.243767
H 0.586430 0.791630 0.871440 0.243715
C 0.443800 0.177200 0.075100 -0.843461
C 0.556200 0.822800 0.924900 -0.842972
H 0.472080 0.191920 0.081670 0.238242
H 0.527920 0.808080 0.918330 0.238129
H 0.421800 0.200020 0.068490 0.252085
H 0.578210 0.799980 0.931510 0.251841
H 0.449870 0.156850 0.057480 0.254905
H 0.550140 0.843150 0.942520 0.254801
C 0.456300 0.109900 0.107500 -0.843660
C 0.543700 0.890100 0.892500 -0.843500
H 0.486730 0.117630 0.100120 0.243410
H 0.513270 0.882370 0.899880 0.243373
H 0.444710 0.084240 0.095460 0.261900
H 0.555290 0.915760 0.904540 0.261855
H 0.457780 0.102110 0.129940 0.248373
H 0.542220 0.897890 0.870060 0.248335
O 0.885980 0.205500 0.123750 -0.432762
O 0.114020 0.794500 0.876250 -0.432760
O 0.851690 0.244150 0.161440 -0.444590
O 0.148310 0.755850 0.838560 -0.444586
O 0.961320 0.285210 0.037260 -0.423798
O 0.038680 0.714790 0.962740 -0.423797
O 0.962720 0.360420 0.037210 -0.439264
O 0.037280 0.639580 0.962790 -0.439262
C 0.872100 0.241700 0.134990 0.359640
C 0.127900 0.758300 0.865010 0.359632
C 0.908400 0.283700 0.090880 0.087380
C 0.091600 0.716300 0.909120 0.087359
H 0.922820 0.256600 0.084760 0.030301
H 0.077180 0.743400 0.915240 0.030308
C 0.879400 0.284200 0.116340 -0.155189
C 0.120600 0.715800 0.883660 -0.155167
C 0.856400 0.323000 0.123900 0.102406
C 0.143600 0.677000 0.876100 0.102367
H 0.836790 0.322770 0.141570 -0.014566
H 0.163210 0.677230 0.858430 -0.014549
C 0.861100 0.362300 0.106700 -0.214956
C 0.138900 0.637700 0.893300 -0.214893
C 0.892800 0.362100 0.082100 0.098561
C 0.107200 0.637900 0.917900 0.098521
H 0.898460 0.388790 0.070500 -0.012745
H 0.101540 0.611210 0.929500 -0.012728
C 0.916000 0.322600 0.074610 -0.153398
C 0.084000 0.677400 0.925390 -0.153377
C 0.948500 0.323400 0.048020 0.348782
C 0.051500 0.676600 0.951980 0.348774
C 0.833500 0.404900 0.116350 0.519458
C 0.166500 0.595100 0.883650 0.519297
C 0.784000 0.390400 0.121900 -0.748821
C 0.216000 0.609600 0.878100 -0.748693
H 0.766190 0.416460 0.128530 0.208650
H 0.233810 0.583540 0.871470 0.208610
H 0.783190 0.367340 0.138440 0.227976
H 0.216810 0.632660 0.861560 0.227940
H 0.771200 0.378080 0.102350 0.224263
H 0.228800 0.621920 0.897650 0.224227
C 0.851100 0.418300 0.149300 -0.784905
C 0.148900 0.581700 0.850700 -0.784755
H 0.829210 0.438270 0.159410 0.221285
H 0.170790 0.561730 0.840590 0.221238
H 0.880210 0.433870 0.147310 0.232356
H 0.119790 0.566130 0.852690 0.232312
H 0.855230 0.391230 0.162230 0.240567
H 0.144770 0.608770 0.837770 0.240523
C 0.831200 0.437000 0.088200 -0.797816
C 0.168800 0.563000 0.911800 -0.797430
H 0.820180 0.466420 0.095230 0.222860
H 0.179830 0.533580 0.904770 0.222695
H 0.810550 0.424870 0.072160 0.238136
H 0.189450 0.575130 0.927840 0.238018
H 0.861510 0.440440 0.079230 0.241752
H 0.138490 0.559560 0.920770 0.241651
